
*** ChampSim Multicore Out-of-Order Simulator ***

Warmup Instructions: 1000000
Simulation Instructions: 1000000
Number of CPUs: 1
LLC sets: 2048
LLC ways: 16
Off-chip DRAM Size: 4096 MB Channels: 1 Width: 64-bit Data Rate: 3200 MT/s

CPU 0 runs /nfs-scratch/usk6037/ChampSim/traces/lbm_94B.trace.xz
0
CPU 0 Bimodal branch predictor
onetwowhy not??My int is 0x401dbf

Input Size: 0
Cache size: 10
Hit Count: 0
Cache filled 0 times.
My int is 0x401dbf
My int is 0x401dbf
My int is 0x401dbf
My int is 0x401dbf
My int is 0x401dbf
My int is 0x401dbf
My int is 0x401dbf
My int is 0x401dbf
My int is 0x401dbf
My int is 0x401dbf

Input Size: 10
Cache size: 10
Hit Count: 9
Cache filled 0 times.
My int is 0x401dbf
My int is 0x401dbf
My int is 0x401dbf
My int is 0x401dbf
My int is 0x401dbf
My int is 0x401dbf
My int is 0x401dbf
My int is 0x401dbf
My int is 0x401dbf
My int is 0x401dbf

Input Size: 20
Cache size: 10
Hit Count: 19
Cache filled 0 times.
My int is 0x401dbf
My int is 0x401dbf
My int is 0x401dbf
My int is 0x401dbf
My int is 0x401dbf
My int is 0x401dbf
My int is 0x401dbf
My int is 0x401dbf
My int is 0x401dbf
My int is 0x401dbf

Input Size: 30
Cache size: 10
Hit Count: 29
Cache filled 0 times.
My int is 0x401dbf
My int is 0x401dbf
My int is 0x401dbf
My int is 0x401dbf
My int is 0x401dbf
My int is 0x401dbf
My int is 0x401dbf
My int is 0x401dbf
My int is 0x401dbf
My int is 0x401dbf

Input Size: 40
Cache size: 10
Hit Count: 39
Cache filled 0 times.
My int is 0x401dbf
My int is 0x401dbf
My int is 0x401dbf
My int is 0x401dbf
My int is 0x401dbf
My int is 0x401dbf
My int is 0x401dbf
My int is 0x401dbf
My int is 0x401dbf
My int is 0x401dbf

Input Size: 50
Cache size: 10
Hit Count: 49
Cache filled 0 times.
My int is 0x401dbf
My int is 0x401dbf
My int is 0x401dbf
My int is 0x401dbf
My int is 0x401dbf
My int is 0x401dbf
My int is 0x401dbf
My int is 0x401dbf
My int is 0x401dbf
My int is 0x401dbf

Input Size: 60
Cache size: 10
Hit Count: 59
Cache filled 0 times.
My int is 0x401dbf
My int is 0x401dbf
My int is 0x401dbf
My int is 0x401dbf
My int is 0x401dbf
My int is 0x401dbf
My int is 0x401dbf
My int is 0x401dbf
My int is 0x401dbf
My int is 0x401dbf

Input Size: 70
Cache size: 10
Hit Count: 69
Cache filled 0 times.
My int is 0x401dbf
My int is 0x401dbf
My int is 0x401dbf
My int is 0x401dbf
My int is 0x401dbf
My int is 0x401dbf
My int is 0x401dbf
My int is 0x401dbf
My int is 0x401dbf
My int is 0x401dbf

Input Size: 80
Cache size: 10
Hit Count: 79
Cache filled 0 times.
My int is 0x401dbf
My int is 0x401dbf
My int is 0x401dbf
My int is 0x401dbf
My int is 0x401dbf
My int is 0x401dbf
My int is 0x401dbf
My int is 0x401dbf
My int is 0x401dbf
My int is 0x401dbf

Input Size: 90
Cache size: 10
Hit Count: 89
Cache filled 0 times.
My int is 0x401dbf
My int is 0x401dbf
My int is 0x401dbf
My int is 0x401dbf
My int is 0x401dbf
My int is 0x401dbf
My int is 0x401dbf
My int is 0x401dbf
My int is 0x401dbf
My int is 0x401dbf

Input Size: 100
Cache size: 10
Hit Count: 99
Cache filled 0 times.
My int is 0x401dbf
My int is 0x401dbf
My int is 0x401dbf
My int is 0x401dbf
My int is 0x401dbf
My int is 0x401dbf
My int is 0x401dbf
My int is 0x401dbf
My int is 0x401dbf
My int is 0x401dbf

Input Size: 110
Cache size: 10
Hit Count: 109
Cache filled 0 times.
My int is 0x401dbf
My int is 0x401dbf
My int is 0x401dbf
My int is 0x401dbf
My int is 0x401dbf
My int is 0x401dbf
My int is 0x401dbf
My int is 0x401dbf
My int is 0x401dbf
My int is 0x401dbf

Input Size: 120
Cache size: 10
Hit Count: 119
Cache filled 0 times.
My int is 0x401dbf
My int is 0x401dbf
My int is 0x401dbf
My int is 0x401dbf
My int is 0x401dbf
My int is 0x401dbf
My int is 0x401dbf
My int is 0x401dbf
My int is 0x401dbf
My int is 0x401dbf

Input Size: 130
Cache size: 10
Hit Count: 129
Cache filled 0 times.
130
My int is 0x401dbf
My int is 0x401dbf
My int is 0x401dbf
My int is 0x401dbf
My int is 0x401dbf
My int is 0x401dbf
My int is 0x401dbf
My int is 0x401dbf
My int is 0x401dbf
My int is 0x401dbf

Input Size: 140
Cache size: 10
Hit Count: 139
Cache filled 0 times.
My int is 0x401dbf
My int is 0x401dbf
My int is 0x401dbf
My int is 0x401dbf
My int is 0x401dbf
My int is 0x401dbf
My int is 0x401dbf
My int is 0x401dbf
My int is 0x401dbf
My int is 0x401dbf

Input Size: 150
Cache size: 10
Hit Count: 149
Cache filled 0 times.
My int is 0x401dbf
My int is 0x401dbf
My int is 0x401dbf
My int is 0x401dbf
My int is 0x401dbf
My int is 0x401dbf
My int is 0x401dbf
My int is 0x401dbf
My int is 0x401dbf
My int is 0x401dbf

Input Size: 160
Cache size: 10
Hit Count: 159
Cache filled 0 times.
My int is 0x401dbf
My int is 0x401dbf
My int is 0x401dbf
My int is 0x401dbf
My int is 0x401dbf
My int is 0x401dbf
My int is 0x401dbf
My int is 0x401dbf
My int is 0x401dbf
My int is 0x401dbf

Input Size: 170
Cache size: 10
Hit Count: 169
Cache filled 0 times.
My int is 0x401dbf
My int is 0x401dbf
My int is 0x401dbf
My int is 0x401dbf
My int is 0x401dbf
My int is 0x401dbf
My int is 0x401dbf
My int is 0x401dbf
My int is 0x401dbf
My int is 0x401dbf

Input Size: 180
Cache size: 10
Hit Count: 179
Cache filled 0 times.
My int is 0x401dbf
My int is 0x401dbf
My int is 0x401dbf
My int is 0x401dbf
My int is 0x401dbf
My int is 0x401dbf
My int is 0x401dbf
My int is 0x401dbf
My int is 0x401dbf
My int is 0x401dbf

Input Size: 190
Cache size: 10
Hit Count: 189
Cache filled 0 times.
My int is 0x401dbf
My int is 0x401dbf
My int is 0x401dbf
My int is 0x401dbf
My int is 0x401dbf
My int is 0x401dbf
My int is 0x401dbf
My int is 0x401dbf
My int is 0x401dbf
My int is 0x401dbf

Input Size: 200
Cache size: 10
Hit Count: 199
Cache filled 0 times.
My int is 0x401dbf
My int is 0x401dbf
My int is 0x401dbf
My int is 0x401dbf
My int is 0x401dbf
My int is 0x401dbf
My int is 0x401dbf
My int is 0x401dbf
My int is 0x401dbf
My int is 0x401dbf

Input Size: 210
Cache size: 10
Hit Count: 209
Cache filled 0 times.
My int is 0x401dbf
My int is 0x401dbf
My int is 0x401dbf
My int is 0x401dbf
My int is 0x401dbf
My int is 0x401dbf
My int is 0x401dbf
My int is 0x401dbf
My int is 0x401dbf
My int is 0x401dbf

Input Size: 220
Cache size: 10
Hit Count: 219
Cache filled 0 times.
My int is 0x401dbf
My int is 0x401dbf
My int is 0x401dbf
My int is 0x401dbf
My int is 0x401dbf
My int is 0x401dbf
My int is 0x401dbf
My int is 0x401dbf
My int is 0x401dbf
My int is 0x401dbf

Input Size: 230
Cache size: 10
Hit Count: 229
Cache filled 0 times.
My int is 0x401dbf
My int is 0x401dbf
My int is 0x401dbf
My int is 0x401dbf
My int is 0x401dbf
My int is 0x401dbf
My int is 0x401dbf
My int is 0x401dbf
My int is 0x401dbf
My int is 0x401dbf

Input Size: 240
Cache size: 10
Hit Count: 239
Cache filled 0 times.
My int is 0x401dbf
My int is 0x401dbf
My int is 0x401dbf
My int is 0x401dbf
My int is 0x401dbf
My int is 0x401dbf
My int is 0x401dbf
My int is 0x401dbf
My int is 0x401dbf
My int is 0x401dbf

Input Size: 250
Cache size: 10
Hit Count: 249
Cache filled 0 times.
My int is 0x401dbf
My int is 0x401dbf
My int is 0x401dbf
My int is 0x401dbf
My int is 0x401dbf
My int is 0x401dbf
My int is 0x401dbf
My int is 0x401dbf
My int is 0x401dbf
My int is 0x401dbf

Input Size: 260
Cache size: 10
Hit Count: 259
Cache filled 0 times.
My int is 0x401dbf
My int is 0x401dbf
My int is 0x401dbf
My int is 0x401dbf
My int is 0x401dbf
My int is 0x401dbf
My int is 0x401dbf
My int is 0x401dbf
My int is 0x401dbf
My int is 0x401dbf

Input Size: 270
Cache size: 10
Hit Count: 269
Cache filled 0 times.
My int is 0x401dbf
My int is 0x401dbf
My int is 0x401dbf
My int is 0x401dbf
My int is 0x401dbf
My int is 0x401dbf
My int is 0x401dbf
My int is 0x401dbf
My int is 0x401dbf
My int is 0x401dbf

Input Size: 280
Cache size: 10
Hit Count: 279
Cache filled 0 times.
My int is 0x401dbf
My int is 0x401dbf
My int is 0x401dbf
My int is 0x401dbf
My int is 0x401dbf
My int is 0x401dbf
My int is 0x401dbf
My int is 0x401dbf
My int is 0x401dbf
My int is 0x401dbf

Input Size: 290
Cache size: 10
Hit Count: 289
Cache filled 0 times.
My int is 0x401dbf
My int is 0x401dbf
My int is 0x401dbf
My int is 0x401dbf
My int is 0x401dbf
My int is 0x401dbf
My int is 0x401dbf
My int is 0x401dbf
My int is 0x401dbf
My int is 0x401dbf

Input Size: 300
Cache size: 10
Hit Count: 299
Cache filled 0 times.
My int is 0x401dbf
My int is 0x401dbf
My int is 0x401dbf
My int is 0x401dbf
My int is 0x401dbf
My int is 0x401dbf
My int is 0x401dbf
My int is 0x401dbf
My int is 0x401dbf
My int is 0x401dbf

Input Size: 310
Cache size: 10
Hit Count: 309
Cache filled 0 times.
My int is 0x401dbf
My int is 0x401dbf
My int is 0x401dbf
My int is 0x401dbf
My int is 0x401dbf
My int is 0x401dbf
My int is 0x401dbf
My int is 0x401dbf
My int is 0x401dbf
My int is 0x401dbf

Input Size: 320
Cache size: 10
Hit Count: 319
Cache filled 0 times.
My int is 0x401dbf
My int is 0x401dbf
My int is 0x401dbf
My int is 0x401dbf
My int is 0x401dbf
My int is 0x401dbf
My int is 0x401dbf
My int is 0x401dbf
My int is 0x401dbf
My int is 0x401dbf

Input Size: 330
Cache size: 10
Hit Count: 329
Cache filled 0 times.
My int is 0x401dbf
My int is 0x401dbf
My int is 0x401dbf
My int is 0x401dbf
My int is 0x401dbf
My int is 0x401dbf
My int is 0x401dbf
My int is 0x401dbf
My int is 0x401dbf
My int is 0x401dbf

Input Size: 340
Cache size: 10
Hit Count: 339
Cache filled 0 times.
My int is 0x401dbf
My int is 0x401dbf
My int is 0x401dbf
My int is 0x401dbf
My int is 0x401dbf
My int is 0x401dbf
My int is 0x401dbf
My int is 0x401dbf
My int is 0x401dbf
My int is 0x401dbf

Input Size: 350
Cache size: 10
Hit Count: 349
Cache filled 0 times.
My int is 0x401dbf
My int is 0x401dbf
My int is 0x401dbf
My int is 0x401dbf
My int is 0x401dbf
My int is 0x401dbf
My int is 0x401dbf
My int is 0x401dbf
My int is 0x401dbf
My int is 0x401dbf

Input Size: 360
Cache size: 10
Hit Count: 359
Cache filled 0 times.
My int is 0x401dbf
My int is 0x401dbf
My int is 0x401dbf
My int is 0x401dbf
My int is 0x401dbf
My int is 0x401dbf
My int is 0x401dbf
My int is 0x401dbf
My int is 0x401dbf
My int is 0x401dbf

Input Size: 370
Cache size: 10
Hit Count: 369
Cache filled 0 times.
My int is 0x401dbf
My int is 0x401dbf
My int is 0x401dbf
My int is 0x401dbf
My int is 0x401dbf
My int is 0x401dbf
My int is 0x401dbf
My int is 0x401dbf
My int is 0x401dbf
My int is 0x401dbf

Input Size: 380
Cache size: 10
Hit Count: 379
Cache filled 0 times.
My int is 0x401dbf
My int is 0x401dbf
My int is 0x401dbf
My int is 0x401dbf
My int is 0x401dbf
My int is 0x401dbf
My int is 0x401dbf
My int is 0x401dbf
My int is 0x401dbf
My int is 0x401dbf

Input Size: 390
Cache size: 10
Hit Count: 389
Cache filled 0 times.
My int is 0x401dbf
My int is 0x401dbf
My int is 0x401dbf
My int is 0x401dbf
My int is 0x401dbf
My int is 0x401dbf
My int is 0x401dbf
My int is 0x401dbf
My int is 0x401dbf
My int is 0x401dbf

Input Size: 400
Cache size: 10
Hit Count: 399
Cache filled 0 times.
My int is 0x401dbf
My int is 0x401dbf
My int is 0x401dbf
My int is 0x401dbf
My int is 0x401dbf
My int is 0x401dbf
My int is 0x401dbf
My int is 0x401dbf
My int is 0x401dbf
My int is 0x401dbf

Input Size: 410
Cache size: 10
Hit Count: 409
Cache filled 0 times.
My int is 0x401dbf
My int is 0x401dbf
My int is 0x401dbf
My int is 0x401dbf
My int is 0x401dbf
My int is 0x401dbf
My int is 0x401dbf
My int is 0x401dbf
My int is 0x401dbf
My int is 0x401dbf

Input Size: 420
Cache size: 10
Hit Count: 419
Cache filled 0 times.
My int is 0x401dbf
My int is 0x401dbf
My int is 0x401dbf
My int is 0x401dbf
My int is 0x401dbf
My int is 0x401dbf
My int is 0x401dbf
My int is 0x401dbf
My int is 0x401dbf
My int is 0x401dbf

Input Size: 430
Cache size: 10
Hit Count: 429
Cache filled 0 times.
My int is 0x401dbf
My int is 0x401dbf
My int is 0x401dbf
My int is 0x401dbf
My int is 0x401dbf
My int is 0x401dbf
My int is 0x401dbf
My int is 0x401dbf
My int is 0x401dbf
My int is 0x401dbf

Input Size: 440
Cache size: 10
Hit Count: 439
Cache filled 0 times.
My int is 0x401dbf
My int is 0x401dbf
My int is 0x401dbf
My int is 0x401dbf
My int is 0x401dbf
My int is 0x401dbf
My int is 0x401dbf
My int is 0x401dbf
My int is 0x401dbf
My int is 0x401dbf

Input Size: 450
Cache size: 10
Hit Count: 449
Cache filled 0 times.
My int is 0x401dbf
My int is 0x401dbf
My int is 0x401dbf
My int is 0x401dbf
My int is 0x401dbf
My int is 0x401dbf
My int is 0x401dbf
My int is 0x401dbf
My int is 0x401dbf
My int is 0x401dbf

Input Size: 460
Cache size: 10
Hit Count: 459
Cache filled 0 times.
My int is 0x401dbf
My int is 0x401dbf
My int is 0x401dbf
My int is 0x401dbf
My int is 0x401dbf
My int is 0x401dbf
My int is 0x401dbf
My int is 0x401dbf
My int is 0x401dbf
My int is 0x401dbf

Input Size: 470
Cache size: 10
Hit Count: 469
Cache filled 0 times.
My int is 0x401dbf
My int is 0x401dbf
My int is 0x401dbf
My int is 0x401dbf
My int is 0x401dbf
My int is 0x401dbf
My int is 0x401dbf
My int is 0x401dbf
My int is 0x401dbf
My int is 0x401dbf

Input Size: 480
Cache size: 10
Hit Count: 479
Cache filled 0 times.
My int is 0x401dbf
My int is 0x401dbf
My int is 0x401dbf
My int is 0x401dbf
My int is 0x401dbf
My int is 0x401dbf
My int is 0x401dbf
My int is 0x401dbf
My int is 0x401dbf
My int is 0x401dbf

Input Size: 490
Cache size: 10
Hit Count: 489
Cache filled 0 times.
My int is 0x401dbf
My int is 0x401dbf
My int is 0x401dbf
My int is 0x401dbf
My int is 0x401dbf
My int is 0x401dbf
My int is 0x401dbf
My int is 0x401dbf
My int is 0x401dbf
My int is 0x401dbf

Input Size: 500
Cache size: 10
Hit Count: 499
Cache filled 0 times.
My int is 0x401dbf
My int is 0x401dbf
My int is 0x401dbf
My int is 0x401dbf
My int is 0x401dbf
My int is 0x401dbf
My int is 0x401dbf
My int is 0x401dbf
My int is 0x401dbf
My int is 0x401dbf

Input Size: 510
Cache size: 10
Hit Count: 509
Cache filled 0 times.
My int is 0x401dbf
My int is 0x401dbf
My int is 0x401dbf
My int is 0x401dbf
My int is 0x401dbf
My int is 0x401dbf
My int is 0x401dbf
My int is 0x401dbf
My int is 0x401dbf
My int is 0x401dbf

Input Size: 520
Cache size: 10
Hit Count: 519
Cache filled 0 times.
My int is 0x401dbf
My int is 0x401dbf
My int is 0x401dbf
My int is 0x401dbf
My int is 0x401dbf
My int is 0x401dbf
My int is 0x401dbf
My int is 0x401dbf
My int is 0x401dbf
My int is 0x401dbf

Input Size: 530
Cache size: 10
Hit Count: 529
Cache filled 0 times.
My int is 0x401dbf
My int is 0x401dbf
My int is 0x401dbf
My int is 0x401dbf
My int is 0x401dbf
My int is 0x401dbf
My int is 0x401dbf
My int is 0x401dbf
My int is 0x401dbf
My int is 0x401dbf

Input Size: 540
Cache size: 10
Hit Count: 539
Cache filled 0 times.
My int is 0x401dbf
My int is 0x401dbf
My int is 0x401dbf
My int is 0x401dbf
My int is 0x401dbf
My int is 0x401dbf
My int is 0x401dbf
My int is 0x401dbf
My int is 0x401dbf
My int is 0x401dbf

Input Size: 550
Cache size: 10
Hit Count: 549
Cache filled 0 times.
My int is 0x401dbf
My int is 0x401dbf
My int is 0x401dbf
My int is 0x401dbf
My int is 0x401dbf
My int is 0x401dbf
My int is 0x401dbf
My int is 0x401dbf
My int is 0x401dbf
My int is 0x401dbf

Input Size: 560
Cache size: 10
Hit Count: 559
Cache filled 0 times.
My int is 0x401dbf
My int is 0x401dbf
My int is 0x401dbf
My int is 0x401dbf
My int is 0x401dbf
My int is 0x401dbf
My int is 0x401dbf
My int is 0x401dbf
My int is 0x401dbf
My int is 0x401dbf

Input Size: 570
Cache size: 10
Hit Count: 569
Cache filled 0 times.
My int is 0x401dbf
My int is 0x401dbf
My int is 0x401dbf
My int is 0x401dbf
My int is 0x401dbf
My int is 0x401dbf
My int is 0x401dbf
My int is 0x401dbf
My int is 0x401dbf
My int is 0x401dbf

Input Size: 580
Cache size: 10
Hit Count: 579
Cache filled 0 times.
My int is 0x401dbf
My int is 0x401dbf
My int is 0x401dbf
My int is 0x401dbf
My int is 0x401dbf
My int is 0x401dbf
My int is 0x401dbf
My int is 0x401dbf
My int is 0x401dbf
My int is 0x401dbf

Input Size: 590
Cache size: 10
Hit Count: 589
Cache filled 0 times.
My int is 0x401dbf
My int is 0x401dbf
My int is 0x401dbf
My int is 0x401dbf
My int is 0x401dbf
My int is 0x401dbf
My int is 0x401dbf
My int is 0x401dbf
My int is 0x401dbf
My int is 0x401dbf

Input Size: 600
Cache size: 10
Hit Count: 599
Cache filled 0 times.
My int is 0x401dbf
My int is 0x401dbf
My int is 0x401dbf
My int is 0x401dbf
My int is 0x401dbf
My int is 0x401dbf
My int is 0x401dbf
My int is 0x401dbf
My int is 0x401dbf
My int is 0x401dbf

Input Size: 610
Cache size: 10
Hit Count: 609
Cache filled 0 times.
My int is 0x401dbf
My int is 0x401dbf
My int is 0x401dbf
My int is 0x401dbf
My int is 0x401dbf
My int is 0x401dbf
My int is 0x401dbf
My int is 0x401dbf
My int is 0x401dbf
My int is 0x401dbf

Input Size: 620
Cache size: 10
Hit Count: 619
Cache filled 0 times.
My int is 0x401dbf
My int is 0x401dbf
My int is 0x401dbf
My int is 0x401dbf
My int is 0x401dbf
My int is 0x401dbf
My int is 0x401dbf
My int is 0x401dbf
My int is 0x401dbf
My int is 0x401dbf

Input Size: 630
Cache size: 10
Hit Count: 629
Cache filled 0 times.
My int is 0x401dbf
My int is 0x401dbf
My int is 0x401dbf
My int is 0x401dbf
My int is 0x401dbf
My int is 0x401dbf
My int is 0x401dbf
My int is 0x401dbf
My int is 0x401dbf
My int is 0x401dbf

Input Size: 640
Cache size: 10
Hit Count: 639
Cache filled 0 times.
My int is 0x401dbf
My int is 0x401dbf
My int is 0x401dbf
My int is 0x401dbf
My int is 0x401dbf
My int is 0x401dbf
My int is 0x401dbf
My int is 0x401dbf
My int is 0x401dbf
My int is 0x401dbf

Input Size: 650
Cache size: 10
Hit Count: 649
Cache filled 0 times.
My int is 0x401dbf
My int is 0x401dbf
My int is 0x401dbf
My int is 0x401dbf
My int is 0x401dbf
My int is 0x401dbf
My int is 0x401dbf
My int is 0x401dbf
My int is 0x401dbf
My int is 0x401dbf

Input Size: 660
Cache size: 10
Hit Count: 659
Cache filled 0 times.
My int is 0x401dbf
My int is 0x401dbf
My int is 0x401dbf
My int is 0x401dbf
My int is 0x401dbf
My int is 0x401dbf
My int is 0x401dbf
My int is 0x401dbf
My int is 0x401dbf
My int is 0x401dbf

Input Size: 670
Cache size: 10
Hit Count: 669
Cache filled 0 times.
My int is 0x401dbf
My int is 0x401dbf
My int is 0x401dbf
My int is 0x401dbf
My int is 0x401dbf
My int is 0x401dbf
My int is 0x401dbf
My int is 0x401dbf
My int is 0x401dbf
My int is 0x401dbf

Input Size: 680
Cache size: 10
Hit Count: 679
Cache filled 0 times.
My int is 0x401dbf
My int is 0x401dbf
My int is 0x401dbf
My int is 0x401dbf
My int is 0x401dbf
My int is 0x401dbf
My int is 0x401dbf
My int is 0x401dbf
My int is 0x401dbf
My int is 0x401dbf

Input Size: 690
Cache size: 10
Hit Count: 689
Cache filled 0 times.
My int is 0x401dbf
My int is 0x401dbf
My int is 0x401dbf
My int is 0x401dbf
My int is 0x401dbf
My int is 0x401dbf
My int is 0x401dbf
My int is 0x401dbf
My int is 0x401dbf
My int is 0x401dbf

Input Size: 700
Cache size: 10
Hit Count: 699
Cache filled 0 times.
My int is 0x401dbf
My int is 0x401dbf
My int is 0x401dbf
My int is 0x401dbf
My int is 0x401dbf
My int is 0x401dbf
My int is 0x401dbf
My int is 0x401dbf
My int is 0x401dbf
My int is 0x401dbf

Input Size: 710
Cache size: 10
Hit Count: 709
Cache filled 0 times.
My int is 0x401dbf
My int is 0x401dbf
My int is 0x401dbf
My int is 0x401dbf
My int is 0x401dbf
My int is 0x401dbf
My int is 0x401dbf
My int is 0x401dbf
My int is 0x401dbf
My int is 0x401dbf

Input Size: 720
Cache size: 10
Hit Count: 719
Cache filled 0 times.
My int is 0x401dbf
My int is 0x401dbf
My int is 0x401dbf
My int is 0x401dbf
My int is 0x401dbf
My int is 0x401dbf
My int is 0x401dbf
My int is 0x401dbf
My int is 0x401dbf
My int is 0x401dbf

Input Size: 730
Cache size: 10
Hit Count: 729
Cache filled 0 times.
My int is 0x401dbf
My int is 0x401dbf
My int is 0x401dbf
My int is 0x401dbf
My int is 0x401dbf
My int is 0x401dbf
My int is 0x401dbf
My int is 0x401dbf
My int is 0x401dbf
My int is 0x401dbf

Input Size: 740
Cache size: 10
Hit Count: 739
Cache filled 0 times.
My int is 0x401dbf
My int is 0x401dbf
My int is 0x401dbf
My int is 0x401dbf
My int is 0x401dbf
My int is 0x401dbf
My int is 0x401dbf
My int is 0x401dbf
My int is 0x401dbf
My int is 0x401dbf

Input Size: 750
Cache size: 10
Hit Count: 749
Cache filled 0 times.
My int is 0x401dbf
My int is 0x401dbf
My int is 0x401dbf
My int is 0x401dbf
My int is 0x401dbf
My int is 0x401dbf
My int is 0x401dbf
My int is 0x401dbf
My int is 0x401dbf
My int is 0x401dbf

Input Size: 760
Cache size: 10
Hit Count: 759
Cache filled 0 times.
My int is 0x401dbf
My int is 0x401dbf
My int is 0x401dbf
My int is 0x401dbf
My int is 0x401dbf
My int is 0x401dbf
My int is 0x401dbf
My int is 0x401dbf
My int is 0x401dbf
My int is 0x401dbf

Input Size: 770
Cache size: 10
Hit Count: 769
Cache filled 0 times.
My int is 0x401dbf
My int is 0x401dbf
My int is 0x401dbf
My int is 0x401dbf
My int is 0x401dbf
My int is 0x401dbf
My int is 0x401dbf
My int is 0x401dbf
My int is 0x401dbf
My int is 0x401dbf

Input Size: 780
Cache size: 10
Hit Count: 779
Cache filled 0 times.
My int is 0x401dbf
My int is 0x401dbf
My int is 0x401dbf
My int is 0x401dbf
My int is 0x401dbf
My int is 0x401dbf
My int is 0x401dbf
My int is 0x401dbf
My int is 0x401dbf
My int is 0x401dbf

Input Size: 790
Cache size: 10
Hit Count: 789
Cache filled 0 times.
My int is 0x401dbf
My int is 0x401dbf
My int is 0x401dbf
My int is 0x401dbf
My int is 0x401dbf
My int is 0x401dbf
My int is 0x401dbf
My int is 0x401dbf
My int is 0x401dbf
My int is 0x401dbf

Input Size: 800
Cache size: 10
Hit Count: 799
Cache filled 0 times.
My int is 0x401dbf
My int is 0x401dbf
My int is 0x401dbf
My int is 0x401dbf
My int is 0x401dbf
My int is 0x401dbf
My int is 0x401dbf
My int is 0x401dbf
My int is 0x401dbf
My int is 0x401dbf

Input Size: 810
Cache size: 10
Hit Count: 809
Cache filled 0 times.
My int is 0x401dbf
My int is 0x401dbf
My int is 0x401dbf
My int is 0x401dbf
My int is 0x401dbf
My int is 0x401dbf
My int is 0x401dbf
My int is 0x401dbf
My int is 0x401dbf
My int is 0x401dbf

Input Size: 820
Cache size: 10
Hit Count: 819
Cache filled 0 times.
My int is 0x401dbf
My int is 0x401dbf
My int is 0x401dbf
My int is 0x401dbf
My int is 0x401dbf
My int is 0x401dbf
My int is 0x401dbf
My int is 0x401dbf
My int is 0x401dbf
My int is 0x401dbf

Input Size: 830
Cache size: 10
Hit Count: 829
Cache filled 0 times.
My int is 0x401dbf
My int is 0x401dbf
My int is 0x401dbf
My int is 0x401dbf
My int is 0x401dbf
My int is 0x401dbf
My int is 0x401dbf
My int is 0x401dbf
My int is 0x401dbf
My int is 0x401dbf

Input Size: 840
Cache size: 10
Hit Count: 839
Cache filled 0 times.
My int is 0x401dbf
My int is 0x401dbf
My int is 0x401dbf
My int is 0x401dbf
My int is 0x401dbf
My int is 0x401dbf
My int is 0x401dbf
My int is 0x401dbf
My int is 0x401dbf
My int is 0x401dbf

Input Size: 850
Cache size: 10
Hit Count: 849
Cache filled 0 times.
My int is 0x401dbf
My int is 0x401dbf
My int is 0x401dbf
My int is 0x401dbf
My int is 0x401dbf
My int is 0x401dbf
My int is 0x401dbf
My int is 0x401dbf
My int is 0x401dbf
My int is 0x401dbf

Input Size: 860
Cache size: 10
Hit Count: 859
Cache filled 0 times.
My int is 0x401dbf
My int is 0x401dbf
My int is 0x401dbf
My int is 0x401dbf
My int is 0x401dbf
My int is 0x401dbf
My int is 0x401dbf
My int is 0x401dbf
My int is 0x401dbf
My int is 0x401dbf

Input Size: 870
Cache size: 10
Hit Count: 869
Cache filled 0 times.
My int is 0x401dbf
My int is 0x401dbf
My int is 0x401dbf
My int is 0x401dbf
My int is 0x401dbf
My int is 0x401dbf
My int is 0x401dbf
My int is 0x401dbf
My int is 0x401dbf
My int is 0x401dbf

Input Size: 880
Cache size: 10
Hit Count: 879
Cache filled 0 times.
My int is 0x401dbf
My int is 0x401dbf
My int is 0x401dbf
My int is 0x401dbf
My int is 0x401dbf
My int is 0x401dbf
My int is 0x401dbf
My int is 0x401dbf
My int is 0x401dbf
My int is 0x401dbf

Input Size: 890
Cache size: 10
Hit Count: 889
Cache filled 0 times.
My int is 0x401dbf
My int is 0x401dbf
My int is 0x401dbf
My int is 0x401dbf
My int is 0x401dbf
My int is 0x401dbf
My int is 0x401dbf
My int is 0x401dbf
My int is 0x401dbf
My int is 0x401dbf

Input Size: 900
Cache size: 10
Hit Count: 899
Cache filled 0 times.
My int is 0x401dbf
My int is 0x401dbf
My int is 0x401dbf
My int is 0x401dbf
My int is 0x401dbf
My int is 0x401dbf
My int is 0x401dbf
My int is 0x401dbf
My int is 0x401dbf
My int is 0x401dbf

Input Size: 910
Cache size: 10
Hit Count: 909
Cache filled 0 times.
My int is 0x401dbf
My int is 0x401dbf
My int is 0x401dbf
My int is 0x401dbf
My int is 0x401dbf
My int is 0x401dbf
My int is 0x401dbf
My int is 0x401dbf
My int is 0x401dbf
My int is 0x401dbf

Input Size: 920
Cache size: 10
Hit Count: 919
Cache filled 0 times.
My int is 0x401dbf
My int is 0x401dbf
My int is 0x401dbf
My int is 0x401dbf
My int is 0x401dbf
My int is 0x401dbf
My int is 0x401dbf
My int is 0x401dbf
My int is 0x401dbf
My int is 0x401dbf

Input Size: 930
Cache size: 10
Hit Count: 929
Cache filled 0 times.
My int is 0x401dbf
My int is 0x401dbf
My int is 0x401dbf
My int is 0x401dbf
My int is 0x401dbf
My int is 0x401dbf
My int is 0x401dbf
My int is 0x401dbf
My int is 0x401dbf
My int is 0x401dbf

Input Size: 940
Cache size: 10
Hit Count: 939
Cache filled 0 times.
My int is 0x401dbf
My int is 0x401dbf
My int is 0x401dbf
My int is 0x401dbf
My int is 0x401dbf
My int is 0x401dbf
My int is 0x401dbf
My int is 0x401dbf
My int is 0x401dbf
My int is 0x401dbf

Input Size: 950
Cache size: 10
Hit Count: 949
Cache filled 0 times.
My int is 0x401dbf
My int is 0x401dbf
My int is 0x401dbf
My int is 0x401dbf
My int is 0x401dbf
My int is 0x401dbf
My int is 0x401dbf
My int is 0x401dbf
My int is 0x401dbf
My int is 0x401dbf

Input Size: 960
Cache size: 10
Hit Count: 959
Cache filled 0 times.
My int is 0x401dbf
My int is 0x401dbf
My int is 0x401dbf
My int is 0x401dbf
My int is 0x401dbf
My int is 0x401dbf
My int is 0x401dbf
My int is 0x401dbf
My int is 0x401dbf
My int is 0x401dbf

Input Size: 970
Cache size: 10
Hit Count: 969
Cache filled 0 times.
My int is 0x401dbf
My int is 0x401dbf
My int is 0x401dbf
My int is 0x401dbf
My int is 0x401dbf
My int is 0x401dbf
My int is 0x401dbf
My int is 0x401dbf
My int is 0x401dbf
My int is 0x401dbf

Input Size: 980
Cache size: 10
Hit Count: 979
Cache filled 0 times.
My int is 0x401dbf
My int is 0x401dbf
My int is 0x401dbf
My int is 0x401dbf
My int is 0x401dbf
My int is 0x401dbf
My int is 0x401dbf
My int is 0x401dbf
My int is 0x401dbf
My int is 0x401dbf

Input Size: 990
Cache size: 10
Hit Count: 989
Cache filled 0 times.
My int is 0x401dbf
My int is 0x401dbf
My int is 0x401dbf
My int is 0x401dbf
My int is 0x401dbf
My int is 0x401dbf
My int is 0x401dbf
My int is 0x401dbf
My int is 0x401dbf
My int is 0x401dbf

Input Size: 1000
Cache size: 10
Hit Count: 999
Cache filled 0 times.
My int is 0x401dbf
My int is 0x401dbf
My int is 0x401dbf
My int is 0x401dbf
My int is 0x401dbf
My int is 0x401dbf
My int is 0x401dbf
My int is 0x401dbf
My int is 0x401dbf
My int is 0x401dbf

Input Size: 1010
Cache size: 10
Hit Count: 1009
Cache filled 0 times.
My int is 0x401dbf
My int is 0x401dbf
My int is 0x401dbf
My int is 0x401dbf
My int is 0x401dbf
My int is 0x401dbf
My int is 0x401dbf
My int is 0x401dbf
My int is 0x401dbf
My int is 0x401dbf

Input Size: 1020
Cache size: 10
Hit Count: 1019
Cache filled 0 times.
My int is 0x401dbf
My int is 0x401dbf
My int is 0x401dbf
My int is 0x401dbf
My int is 0x401dbf
My int is 0x401dbf
My int is 0x401dbf
My int is 0x401dbf
My int is 0x401dbf
My int is 0x401dbf

Input Size: 1030
Cache size: 10
Hit Count: 1029
Cache filled 0 times.
My int is 0x401dbf
My int is 0x401dbf
My int is 0x401dbf
My int is 0x401dbf
My int is 0x401dbf
My int is 0x401dbf
My int is 0x401dbf
My int is 0x401dbf
My int is 0x401dbf
My int is 0x401dbf

Input Size: 1040
Cache size: 10
Hit Count: 1039
Cache filled 0 times.
My int is 0x401dbf
My int is 0x401dbf
My int is 0x401dbf
My int is 0x401dbf
My int is 0x401dbf
My int is 0x401dbf
My int is 0x401dbf
My int is 0x401dbf
My int is 0x401dbf
My int is 0x401dbf

Input Size: 1050
Cache size: 10
Hit Count: 1049
Cache filled 0 times.
My int is 0x401dbf
My int is 0x401dbf
My int is 0x401dbf
My int is 0x401dbf
My int is 0x401dbf
My int is 0x401dbf
My int is 0x401dbf
My int is 0x401dbf
My int is 0x401dbf
My int is 0x401dbf

Input Size: 1060
Cache size: 10
Hit Count: 1059
Cache filled 0 times.
My int is 0x401dbf
My int is 0x401dbf
My int is 0x401dbf
My int is 0x401dbf
My int is 0x401dbf
My int is 0x401dbf
My int is 0x401dbf
My int is 0x401dbf
My int is 0x401dbf
My int is 0x401dbf

Input Size: 1070
Cache size: 10
Hit Count: 1069
Cache filled 0 times.
My int is 0x401dbf
My int is 0x401dbf
My int is 0x401dbf
My int is 0x401dbf
My int is 0x401dbf
My int is 0x401dbf
My int is 0x401dbf
My int is 0x401dbf
My int is 0x401dbf
My int is 0x401dbf

Input Size: 1080
Cache size: 10
Hit Count: 1079
Cache filled 0 times.
My int is 0x401dbf
My int is 0x401dbf
My int is 0x401dbf
My int is 0x401dbf
My int is 0x401dbf
My int is 0x401dbf
My int is 0x401dbf
My int is 0x401dbf
My int is 0x401dbf
My int is 0x401dbf

Input Size: 1090
Cache size: 10
Hit Count: 1089
Cache filled 0 times.
My int is 0x401dbf
My int is 0x401dbf
My int is 0x401dbf
My int is 0x401dbf
My int is 0x401dbf
My int is 0x401dbf
My int is 0x401dbf
My int is 0x401dbf
My int is 0x401dbf
My int is 0x401dbf

Input Size: 1100
Cache size: 10
Hit Count: 1099
Cache filled 0 times.
My int is 0x401dbf
My int is 0x401dbf
My int is 0x401dbf
My int is 0x401dbf
My int is 0x401dbf
My int is 0x401dbf
My int is 0x401dbf
My int is 0x401dbf
My int is 0x401dbf
My int is 0x401dbf

Input Size: 1110
Cache size: 10
Hit Count: 1109
Cache filled 0 times.
My int is 0x401dbf
My int is 0x401dbf
My int is 0x401dbf
My int is 0x401dbf
My int is 0x401dbf
My int is 0x401dbf
My int is 0x401dbf
My int is 0x401dbf
My int is 0x401dbf
My int is 0x401dbf

Input Size: 1120
Cache size: 10
Hit Count: 1119
Cache filled 0 times.
My int is 0x401dbf
My int is 0x401dbf
My int is 0x401dbf
My int is 0x401dbf
My int is 0x401dbf
My int is 0x401dbf
My int is 0x401dbf
My int is 0x401dbf
My int is 0x401dbf
My int is 0x401dbf

Input Size: 1130
Cache size: 10
Hit Count: 1129
Cache filled 0 times.
My int is 0x401dbf
My int is 0x401dbf
My int is 0x401dbf
My int is 0x401dbf
My int is 0x401dbf
My int is 0x401dbf
My int is 0x401dbf
My int is 0x401dbf
My int is 0x401dbf
My int is 0x401dbf

Input Size: 1140
Cache size: 10
Hit Count: 1139
Cache filled 0 times.
My int is 0x401dbf
My int is 0x401dbf
My int is 0x401dbf
My int is 0x401dbf
My int is 0x401dbf
My int is 0x401dbf
My int is 0x401dbf
My int is 0x401dbf
My int is 0x401dbf
My int is 0x401dbf

Input Size: 1150
Cache size: 10
Hit Count: 1149
Cache filled 0 times.
My int is 0x401dbf
My int is 0x401dbf
My int is 0x401dbf
My int is 0x401dbf
My int is 0x401dbf
My int is 0x401dbf
My int is 0x401dbf
My int is 0x401dbf
My int is 0x401dbf
My int is 0x401dbf

Input Size: 1160
Cache size: 10
Hit Count: 1159
Cache filled 0 times.
My int is 0x401dbf
My int is 0x401dbf
My int is 0x401dbf
My int is 0x401dbf
My int is 0x401dbf
My int is 0x401dbf
My int is 0x401dbf
My int is 0x401dbf
My int is 0x401dbf
My int is 0x401dbf

Input Size: 1170
Cache size: 10
Hit Count: 1169
Cache filled 0 times.
My int is 0x401dbf
My int is 0x401dbf
My int is 0x401dbf
My int is 0x401dbf
My int is 0x401dbf
My int is 0x401dbf
My int is 0x401dbf
My int is 0x401dbf
My int is 0x401dbf
My int is 0x401dbf

Input Size: 1180
Cache size: 10
Hit Count: 1179
Cache filled 0 times.
My int is 0x401dbf
My int is 0x401dbf
My int is 0x401dbf
My int is 0x401dbf
My int is 0x401dbf
My int is 0x401dbf
My int is 0x401dbf
My int is 0x401dbf
My int is 0x401dbf
My int is 0x401dbf

Input Size: 1190
Cache size: 10
Hit Count: 1189
Cache filled 0 times.
My int is 0x401dbf
My int is 0x401dbf
My int is 0x401dbf
My int is 0x401dbf
My int is 0x401dbf
My int is 0x401dbf
My int is 0x401dbf
My int is 0x401dbf
My int is 0x401dbf
My int is 0x401dbf

Input Size: 1200
Cache size: 10
Hit Count: 1199
Cache filled 0 times.
My int is 0x401dbf
My int is 0x401dbf
My int is 0x401dbf
My int is 0x401dbf
My int is 0x401dbf
My int is 0x401dbf
My int is 0x401dbf
My int is 0x401dbf
My int is 0x401dbf
My int is 0x401dbf

Input Size: 1210
Cache size: 10
Hit Count: 1209
Cache filled 0 times.
My int is 0x401dbf
My int is 0x401dbf
My int is 0x401dbf
My int is 0x401dbf
My int is 0x401dbf
My int is 0x401dbf
My int is 0x401dbf
My int is 0x401dbf
My int is 0x401dbf
My int is 0x401dbf

Input Size: 1220
Cache size: 10
Hit Count: 1219
Cache filled 0 times.
My int is 0x401dbf
My int is 0x401dbf
My int is 0x401dbf
My int is 0x401dbf
My int is 0x401dbf
My int is 0x401dbf
My int is 0x401dbf
My int is 0x401dbf
My int is 0x401dbf
My int is 0x401dbf

Input Size: 1230
Cache size: 10
Hit Count: 1229
Cache filled 0 times.
My int is 0x401dbf
My int is 0x401dbf
My int is 0x401dbf
My int is 0x401dbf
My int is 0x401dbf
My int is 0x401dbf
My int is 0x401dbf
My int is 0x401dbf
My int is 0x401dbf
My int is 0x401dbf

Input Size: 1240
Cache size: 10
Hit Count: 1239
Cache filled 0 times.
My int is 0x401dbf
My int is 0x401dbf
My int is 0x401dbf
My int is 0x401dbf
My int is 0x401dbf
My int is 0x401dbf
My int is 0x401dbf
My int is 0x401dbf
My int is 0x401dbf
My int is 0x401dbf

Input Size: 1250
Cache size: 10
Hit Count: 1249
Cache filled 0 times.
My int is 0x401dbf
My int is 0x401dbf
My int is 0x401dbf
My int is 0x401dbf
My int is 0x401dbf
My int is 0x401dbf
My int is 0x401dbf
My int is 0x401dbf
My int is 0x401dbf
My int is 0x401dbf

Input Size: 1260
Cache size: 10
Hit Count: 1259
Cache filled 0 times.
My int is 0x401dbf
My int is 0x401dbf
My int is 0x401dbf
My int is 0x401dbf
My int is 0x401dbf
My int is 0x401dbf
My int is 0x401dbf
My int is 0x401dbf
My int is 0x401dbf
My int is 0x401dbf

Input Size: 1270
Cache size: 10
Hit Count: 1269
Cache filled 0 times.
My int is 0x401dbf
My int is 0x401dbf
My int is 0x401dbf
My int is 0x401dbf
My int is 0x401dbf
My int is 0x401dbf
My int is 0x401dbf
My int is 0x401dbf
My int is 0x401dbf
My int is 0x401dbf

Input Size: 1280
Cache size: 10
Hit Count: 1279
Cache filled 0 times.
My int is 0x401dbf
My int is 0x401dbf
My int is 0x401dbf
My int is 0x401dbf
My int is 0x401dbf
My int is 0x401dbf
My int is 0x401dbf
My int is 0x401dbf
My int is 0x401dbf
My int is 0x401dbf

Input Size: 1290
Cache size: 10
Hit Count: 1289
Cache filled 0 times.
My int is 0x401dbf
My int is 0x401dbf
My int is 0x401dbf
My int is 0x401dbf
My int is 0x401dbf
My int is 0x401dbf
My int is 0x401dbf
My int is 0x401dbf
My int is 0x401dbf
My int is 0x401dbf

Input Size: 1300
Cache size: 10
Hit Count: 1299
Cache filled 0 times.
My int is 0x401dbf
My int is 0x401dbf
My int is 0x401dbf
My int is 0x401dbf
My int is 0x401dbf
My int is 0x401dbf
My int is 0x401dbf
My int is 0x401dbf
My int is 0x401dbf
My int is 0x401dbf

Input Size: 1310
Cache size: 10
Hit Count: 1309
Cache filled 0 times.
My int is 0x401dbf
My int is 0x401dbf
My int is 0x401dbf
My int is 0x401dbf
My int is 0x401dbf
My int is 0x401dbf
My int is 0x401dbf
My int is 0x401dbf
My int is 0x401dbf
My int is 0x401dbf

Input Size: 1320
Cache size: 10
Hit Count: 1319
Cache filled 0 times.
My int is 0x401dbf
My int is 0x401dbf
My int is 0x401dbf
My int is 0x401dbf
My int is 0x401dbf
My int is 0x401dbf
My int is 0x401dbf
My int is 0x401dbf
My int is 0x401dbf
My int is 0x401dbf

Input Size: 1330
Cache size: 10
Hit Count: 1329
Cache filled 0 times.
My int is 0x401dbf
My int is 0x401dbf
My int is 0x401dbf
My int is 0x401dbf
My int is 0x401dbf
My int is 0x401dbf
My int is 0x401dbf
My int is 0x401dbf
My int is 0x401dbf
My int is 0x401dbf

Input Size: 1340
Cache size: 10
Hit Count: 1339
Cache filled 0 times.
My int is 0x401dbf
My int is 0x401dbf
My int is 0x401dbf
My int is 0x401dbf
My int is 0x401dbf
My int is 0x401dbf
My int is 0x401dbf
My int is 0x401dbf
My int is 0x401dbf
My int is 0x401dbf

Input Size: 1350
Cache size: 10
Hit Count: 1349
Cache filled 0 times.
My int is 0x401dbf
My int is 0x401dbf
My int is 0x401dbf
My int is 0x401dbf
My int is 0x401dbf
My int is 0x401dbf
My int is 0x401dbf
My int is 0x401dbf
My int is 0x401dbf
My int is 0x401dbf

Input Size: 1360
Cache size: 10
Hit Count: 1359
Cache filled 0 times.
My int is 0x401dbf
My int is 0x401dbf
My int is 0x401dbf
My int is 0x401dbf
My int is 0x401dbf
My int is 0x401dbf
My int is 0x401dbf
My int is 0x401dbf
My int is 0x401dbf
My int is 0x401dbf

Input Size: 1370
Cache size: 10
Hit Count: 1369
Cache filled 0 times.
My int is 0x401dbf
My int is 0x401dbf
My int is 0x401dbf
My int is 0x401dbf
My int is 0x401dbf
My int is 0x401dbf
My int is 0x401dbf
My int is 0x401dbf
My int is 0x401dbf
My int is 0x401dbf

Input Size: 1380
Cache size: 10
Hit Count: 1379
Cache filled 0 times.
My int is 0x401dbf
My int is 0x401dbf
My int is 0x401dbf
My int is 0x401dbf
My int is 0x401dbf
My int is 0x401dbf
My int is 0x401dbf
My int is 0x401dbf
My int is 0x401dbf
My int is 0x401dbf

Input Size: 1390
Cache size: 10
Hit Count: 1389
Cache filled 0 times.
My int is 0x401dbf
My int is 0x401dbf
My int is 0x401dbf
My int is 0x401dbf
My int is 0x401dbf
My int is 0x401dbf
My int is 0x401dbf
My int is 0x401dbf
My int is 0x401dbf
My int is 0x401dbf

Input Size: 1400
Cache size: 10
Hit Count: 1399
Cache filled 0 times.
My int is 0x401dbf
My int is 0x401dbf
My int is 0x401dbf
My int is 0x401dbf
My int is 0x401dbf
My int is 0x401dbf
My int is 0x401dbf
My int is 0x401dbf
My int is 0x401dbf
My int is 0x401dbf

Input Size: 1410
Cache size: 10
Hit Count: 1409
Cache filled 0 times.
My int is 0x401dbf
My int is 0x401dbf
My int is 0x401dbf
My int is 0x401dbf
My int is 0x401dbf
My int is 0x401dbf
My int is 0x401dbf
My int is 0x401dbf
My int is 0x401dbf
My int is 0x401dbf

Input Size: 1420
Cache size: 10
Hit Count: 1419
Cache filled 0 times.
My int is 0x401dbf
My int is 0x401dbf
My int is 0x401dbf
My int is 0x401dbf
My int is 0x401dbf
My int is 0x401dbf
My int is 0x401dbf
My int is 0x401dbf
My int is 0x401dbf
My int is 0x401dbf

Input Size: 1430
Cache size: 10
Hit Count: 1429
Cache filled 0 times.
My int is 0x401dbf
My int is 0x401dbf
My int is 0x401dbf
My int is 0x401dbf
My int is 0x401dbf
My int is 0x401dbf
My int is 0x401dbf
My int is 0x401dbf
My int is 0x401dbf
My int is 0x401dbf

Input Size: 1440
Cache size: 10
Hit Count: 1439
Cache filled 0 times.
My int is 0x401dbf
My int is 0x401dbf
My int is 0x401dbf
My int is 0x401dbf
My int is 0x401dbf
My int is 0x401dbf
My int is 0x401dbf
My int is 0x401dbf
My int is 0x401dbf
My int is 0x401dbf

Input Size: 1450
Cache size: 10
Hit Count: 1449
Cache filled 0 times.
My int is 0x401dbf
My int is 0x401dbf
My int is 0x401dbf
My int is 0x401dbf
My int is 0x401dbf
My int is 0x401dbf
My int is 0x401dbf
My int is 0x401dbf
My int is 0x401dbf
My int is 0x401dbf

Input Size: 1460
Cache size: 10
Hit Count: 1459
Cache filled 0 times.
My int is 0x401dbf
My int is 0x401dbf
My int is 0x401dbf
My int is 0x401dbf
My int is 0x401dbf
My int is 0x401dbf
My int is 0x401dbf
My int is 0x401dbf
My int is 0x401dbf
My int is 0x401dbf

Input Size: 1470
Cache size: 10
Hit Count: 1469
Cache filled 0 times.
My int is 0x401dbf
My int is 0x401dbf
My int is 0x401dbf
My int is 0x401dbf
My int is 0x401dbf
My int is 0x401dbf
My int is 0x401dbf
My int is 0x401dbf
My int is 0x401dbf
My int is 0x401dbf

Input Size: 1480
Cache size: 10
Hit Count: 1479
Cache filled 0 times.
My int is 0x401dbf
My int is 0x401dbf
My int is 0x401dbf
My int is 0x401dbf
My int is 0x401dbf
My int is 0x401dbf
My int is 0x401dbf
My int is 0x401dbf
My int is 0x401dbf
My int is 0x401dbf

Input Size: 1490
Cache size: 10
Hit Count: 1489
Cache filled 0 times.
My int is 0x401dbf
My int is 0x401dbf
My int is 0x401dbf
My int is 0x401dbf
My int is 0x401dbf
My int is 0x401dbf
My int is 0x401dbf
My int is 0x401dbf
My int is 0x401dbf
My int is 0x401dbf

Input Size: 1500
Cache size: 10
Hit Count: 1499
Cache filled 0 times.
My int is 0x401dbf
My int is 0x401dbf
My int is 0x401dbf
My int is 0x401dbf
My int is 0x401dbf
My int is 0x401dbf
My int is 0x401dbf
My int is 0x401dbf
My int is 0x401dbf
My int is 0x401dbf

Input Size: 1510
Cache size: 10
Hit Count: 1509
Cache filled 0 times.
My int is 0x401dbf
My int is 0x401dbf
My int is 0x401dbf
My int is 0x401dbf
My int is 0x401dbf
My int is 0x401dbf
My int is 0x401dbf
My int is 0x401dbf
My int is 0x401dbf
My int is 0x401dbf

Input Size: 1520
Cache size: 10
Hit Count: 1519
Cache filled 0 times.
My int is 0x401dbf
My int is 0x401dbf
My int is 0x401dbf
My int is 0x401dbf
My int is 0x401dbf
My int is 0x401dbf
My int is 0x401dbf
My int is 0x401dbf
My int is 0x401dbf
My int is 0x401dbf

Input Size: 1530
Cache size: 10
Hit Count: 1529
Cache filled 0 times.
My int is 0x401dbf
My int is 0x401dbf
My int is 0x401dbf
My int is 0x401dbf
My int is 0x401dbf
My int is 0x401dbf
My int is 0x401dbf
My int is 0x401dbf
My int is 0x401dbf
My int is 0x401dbf

Input Size: 1540
Cache size: 10
Hit Count: 1539
Cache filled 0 times.
My int is 0x401dbf
My int is 0x401dbf
My int is 0x401dbf
My int is 0x401dbf
My int is 0x401dbf
My int is 0x401dbf
My int is 0x401dbf
My int is 0x401dbf
My int is 0x401dbf
My int is 0x401dbf

Input Size: 1550
Cache size: 10
Hit Count: 1549
Cache filled 0 times.
My int is 0x401dbf
My int is 0x401dbf
My int is 0x401dbf
My int is 0x401dbf
My int is 0x401dbf
My int is 0x401dbf
My int is 0x401dbf
My int is 0x401dbf
My int is 0x401dbf
My int is 0x401dbf

Input Size: 1560
Cache size: 10
Hit Count: 1559
Cache filled 0 times.
My int is 0x401dbf
My int is 0x401dbf
My int is 0x401dbf
My int is 0x401dbf
My int is 0x401dbf
My int is 0x401dbf
My int is 0x401dbf
My int is 0x401dbf
My int is 0x401dbf
My int is 0x401dbf

Input Size: 1570
Cache size: 10
Hit Count: 1569
Cache filled 0 times.
My int is 0x401dbf
My int is 0x401dbf
My int is 0x401dbf
My int is 0x401dbf
My int is 0x401dbf
My int is 0x401dbf
My int is 0x401dbf
My int is 0x401dbf
My int is 0x401dbf
My int is 0x401dbf

Input Size: 1580
Cache size: 10
Hit Count: 1579
Cache filled 0 times.
My int is 0x401dbf
My int is 0x401dbf
My int is 0x401dbf
My int is 0x401dbf
My int is 0x401dbf
My int is 0x401dbf
My int is 0x401dbf
My int is 0x401dbf
My int is 0x401dbf
My int is 0x401dbf

Input Size: 1590
Cache size: 10
Hit Count: 1589
Cache filled 0 times.
My int is 0x401dbf
My int is 0x401dbf
My int is 0x401dbf
My int is 0x401dbf
My int is 0x401dbf
My int is 0x401dbf
My int is 0x401dbf
My int is 0x401dbf
My int is 0x401dbf
My int is 0x401dbf

Input Size: 1600
Cache size: 10
Hit Count: 1599
Cache filled 0 times.
My int is 0x401dbf
My int is 0x401dbf
My int is 0x401dbf
My int is 0x401dbf
My int is 0x401dbf
My int is 0x401dbf
My int is 0x401dbf
My int is 0x401dbf
My int is 0x401dbf
My int is 0x401dbf

Input Size: 1610
Cache size: 10
Hit Count: 1609
Cache filled 0 times.
My int is 0x401dbf
My int is 0x401dbf
My int is 0x401dbf
My int is 0x401dbf
My int is 0x401dbf
My int is 0x401dbf
My int is 0x401dbf
My int is 0x401dbf
My int is 0x401dbf
My int is 0x401dbf

Input Size: 1620
Cache size: 10
Hit Count: 1619
Cache filled 0 times.
My int is 0x401dbf
My int is 0x401dbf
My int is 0x401dbf
My int is 0x401dbf
My int is 0x401dbf
My int is 0x401dbf
My int is 0x401dbf
My int is 0x401dbf
My int is 0x401dbf
My int is 0x401dbf

Input Size: 1630
Cache size: 10
Hit Count: 1629
Cache filled 0 times.
My int is 0x401dbf
My int is 0x401dbf
My int is 0x401dbf
My int is 0x401dbf
My int is 0x401dbf
My int is 0x401dbf
My int is 0x401dbf
My int is 0x401dbf
My int is 0x401dbf
My int is 0x401dbf

Input Size: 1640
Cache size: 10
Hit Count: 1639
Cache filled 0 times.
My int is 0x401dbf
My int is 0x401dbf
My int is 0x401dbf
My int is 0x401dbf
My int is 0x401dbf
My int is 0x401dbf
My int is 0x401dbf
My int is 0x401dbf
My int is 0x401dbf
My int is 0x401dbf

Input Size: 1650
Cache size: 10
Hit Count: 1649
Cache filled 0 times.
My int is 0x401dbf
My int is 0x401dbf
My int is 0x401dbf
My int is 0x401dbf
My int is 0x401dbf
My int is 0x401dbf
My int is 0x401dbf
My int is 0x401dbf
My int is 0x401dbf
My int is 0x401dbf

Input Size: 1660
Cache size: 10
Hit Count: 1659
Cache filled 0 times.
My int is 0x401dbf
My int is 0x401dbf
My int is 0x401dbf
My int is 0x401dbf
My int is 0x401dbf
My int is 0x401dbf
My int is 0x401dbf
My int is 0x401dbf
My int is 0x401dbf
My int is 0x401dbf

Input Size: 1670
Cache size: 10
Hit Count: 1669
Cache filled 0 times.
My int is 0x401dbf
My int is 0x401dbf
My int is 0x401dbf
My int is 0x401dbf
My int is 0x401dbf
My int is 0x401dbf
My int is 0x401dbf
My int is 0x401dbf
My int is 0x401dbf
My int is 0x401dbf

Input Size: 1680
Cache size: 10
Hit Count: 1679
Cache filled 0 times.
My int is 0x401dbf
My int is 0x401dbf
My int is 0x401dbf
My int is 0x401dbf
My int is 0x401dbf
My int is 0x401dbf
My int is 0x401dbf
My int is 0x401dbf
My int is 0x401dbf
My int is 0x401dbf

Input Size: 1690
Cache size: 10
Hit Count: 1689
Cache filled 0 times.
My int is 0x401dbf
My int is 0x401dbf
My int is 0x401dbf
My int is 0x401dbf
My int is 0x401dbf
My int is 0x401dbf
My int is 0x401dbf
My int is 0x401dbf
My int is 0x401dbf
My int is 0x401dbf

Input Size: 1700
Cache size: 10
Hit Count: 1699
Cache filled 0 times.
My int is 0x401dbf
My int is 0x401dbf
My int is 0x401dbf
My int is 0x401dbf
My int is 0x401dbf
My int is 0x401dbf
My int is 0x401dbf
My int is 0x401dbf
My int is 0x401dbf
My int is 0x401dbf

Input Size: 1710
Cache size: 10
Hit Count: 1709
Cache filled 0 times.
My int is 0x401dbf
My int is 0x401dbf
My int is 0x401dbf
My int is 0x401dbf
My int is 0x401dbf
My int is 0x401dbf
My int is 0x401dbf
My int is 0x401dbf
My int is 0x401dbf
My int is 0x401dbf

Input Size: 1720
Cache size: 10
Hit Count: 1719
Cache filled 0 times.
My int is 0x401dbf
My int is 0x401dbf
My int is 0x401dbf
My int is 0x401dbf
My int is 0x401dbf
My int is 0x401dbf
My int is 0x401dbf
My int is 0x401dbf
My int is 0x401dbf
My int is 0x401dbf

Input Size: 1730
Cache size: 10
Hit Count: 1729
Cache filled 0 times.
My int is 0x401dbf
My int is 0x401dbf
My int is 0x401dbf
My int is 0x401dbf
My int is 0x401dbf
My int is 0x401dbf
My int is 0x401dbf
My int is 0x401dbf
My int is 0x401dbf
My int is 0x401dbf

Input Size: 1740
Cache size: 10
Hit Count: 1739
Cache filled 0 times.
My int is 0x401dbf
My int is 0x401dbf
My int is 0x401dbf
My int is 0x401dbf
My int is 0x401dbf
My int is 0x401dbf
My int is 0x401dbf
My int is 0x401dbf
My int is 0x401dbf
My int is 0x401dbf

Input Size: 1750
Cache size: 10
Hit Count: 1749
Cache filled 0 times.
My int is 0x401dbf
My int is 0x401dbf
My int is 0x401dbf
My int is 0x401dbf
My int is 0x401dbf
My int is 0x401dbf
My int is 0x401dbf
My int is 0x401dbf
My int is 0x401dbf
My int is 0x401dbf

Input Size: 1760
Cache size: 10
Hit Count: 1759
Cache filled 0 times.
My int is 0x401dbf
My int is 0x401dbf
My int is 0x401dbf
My int is 0x401dbf
My int is 0x401dbf
My int is 0x401dbf
My int is 0x401dbf
My int is 0x401dbf
My int is 0x401dbf
My int is 0x401dbf

Input Size: 1770
Cache size: 10
Hit Count: 1769
Cache filled 0 times.
My int is 0x401dbf
My int is 0x401dbf
My int is 0x401dbf
My int is 0x401dbf
My int is 0x401dbf
My int is 0x401dbf
My int is 0x401dbf
My int is 0x401dbf
My int is 0x401dbf
My int is 0x401dbf

Input Size: 1780
Cache size: 10
Hit Count: 1779
Cache filled 0 times.
My int is 0x401dbf
My int is 0x401dbf
My int is 0x401dbf
My int is 0x401dbf
My int is 0x401dbf
My int is 0x401dbf
My int is 0x401dbf
My int is 0x401dbf
My int is 0x401dbf
My int is 0x401dbf

Input Size: 1790
Cache size: 10
Hit Count: 1789
Cache filled 0 times.
My int is 0x401dbf
My int is 0x401dbf
My int is 0x401dbf
My int is 0x401dbf
My int is 0x401dbf
My int is 0x401dbf
My int is 0x401dbf
My int is 0x401dbf
My int is 0x401dbf
My int is 0x401dbf

Input Size: 1800
Cache size: 10
Hit Count: 1799
Cache filled 0 times.
My int is 0x401dbf
My int is 0x401dbf
My int is 0x401dbf
My int is 0x401dbf
My int is 0x401dbf
My int is 0x401dbf
My int is 0x401dbf
My int is 0x401dbf
My int is 0x401dbf
My int is 0x401dbf

Input Size: 1810
Cache size: 10
Hit Count: 1809
Cache filled 0 times.
My int is 0x401dbf
My int is 0x401dbf
My int is 0x401dbf
My int is 0x401dbf
My int is 0x401dbf
My int is 0x401dbf
My int is 0x401dbf
My int is 0x401dbf
My int is 0x401dbf
My int is 0x401dbf

Input Size: 1820
Cache size: 10
Hit Count: 1819
Cache filled 0 times.
My int is 0x401dbf
My int is 0x401dbf
My int is 0x401dbf
My int is 0x401dbf
My int is 0x401dbf
My int is 0x401dbf
My int is 0x401dbf
My int is 0x401dbf
My int is 0x401dbf
My int is 0x401dbf

Input Size: 1830
Cache size: 10
Hit Count: 1829
Cache filled 0 times.
My int is 0x401dbf
My int is 0x401dbf
My int is 0x401dbf
My int is 0x401dbf
My int is 0x401dbf
My int is 0x401dbf
My int is 0x401dbf
My int is 0x401dbf
My int is 0x401dbf
My int is 0x401dbf

Input Size: 1840
Cache size: 10
Hit Count: 1839
Cache filled 0 times.
My int is 0x401dbf
My int is 0x401dbf
My int is 0x401dbf
My int is 0x401dbf
My int is 0x401dbf
My int is 0x401dbf
My int is 0x401dbf
My int is 0x401dbf
My int is 0x401dbf
My int is 0x401dbf

Input Size: 1850
Cache size: 10
Hit Count: 1849
Cache filled 0 times.
My int is 0x401dbf
My int is 0x401dbf
My int is 0x401dbf
My int is 0x401dbf
My int is 0x401dbf
My int is 0x401dbf
My int is 0x401dbf
My int is 0x401dbf
My int is 0x401dbf
My int is 0x401dbf

Input Size: 1860
Cache size: 10
Hit Count: 1859
Cache filled 0 times.
My int is 0x401dbf
My int is 0x401dbf
My int is 0x401dbf
My int is 0x401dbf
My int is 0x401dbf
My int is 0x401dbf
My int is 0x401dbf
My int is 0x401dbf
My int is 0x401dbf
My int is 0x401dbf

Input Size: 1870
Cache size: 10
Hit Count: 1869
Cache filled 0 times.
My int is 0x401dbf
My int is 0x401dbf
My int is 0x401dbf
My int is 0x401dbf
My int is 0x401dbf
My int is 0x401dbf
My int is 0x401dbf
My int is 0x401dbf
My int is 0x401dbf
My int is 0x401dbf

Input Size: 1880
Cache size: 10
Hit Count: 1879
Cache filled 0 times.
My int is 0x401dbf
My int is 0x401dbf
My int is 0x401dbf
My int is 0x401dbf
My int is 0x401dbf
My int is 0x401dbf
My int is 0x401dbf
My int is 0x401dbf
My int is 0x401dbf
My int is 0x401dbf

Input Size: 1890
Cache size: 10
Hit Count: 1889
Cache filled 0 times.
My int is 0x401dbf
My int is 0x401dbf
My int is 0x401dbf
My int is 0x401dbf
My int is 0x401dbf
My int is 0x401dbf
My int is 0x401dbf
My int is 0x401dbf
My int is 0x401dbf
My int is 0x401dbf

Input Size: 1900
Cache size: 10
Hit Count: 1899
Cache filled 0 times.
My int is 0x401dbf
My int is 0x401dbf
My int is 0x401dbf
My int is 0x401dbf
My int is 0x401dbf
My int is 0x401dbf
My int is 0x401dbf
My int is 0x401dbf
My int is 0x401dbf
My int is 0x401dbf

Input Size: 1910
Cache size: 10
Hit Count: 1909
Cache filled 0 times.
My int is 0x401dbf
My int is 0x401dbf
My int is 0x401dbf
My int is 0x401dbf
My int is 0x401dbf
My int is 0x401dbf
My int is 0x401dbf
My int is 0x401dbf
My int is 0x401dbf
My int is 0x401dbf

Input Size: 1920
Cache size: 10
Hit Count: 1919
Cache filled 0 times.
My int is 0x401dbf
My int is 0x401dbf
My int is 0x401dbf
My int is 0x401dbf
My int is 0x401dbf
My int is 0x401dbf
My int is 0x401dbf
My int is 0x401dbf
My int is 0x401dbf
My int is 0x401dbf

Input Size: 1930
Cache size: 10
Hit Count: 1929
Cache filled 0 times.
My int is 0x401dbf
My int is 0x401dbf
My int is 0x401dbf
My int is 0x401dbf
My int is 0x401dbf
My int is 0x401dbf
My int is 0x401dbf
My int is 0x401dbf
My int is 0x401dbf
My int is 0x401dbf

Input Size: 1940
Cache size: 10
Hit Count: 1939
Cache filled 0 times.
My int is 0x401dbf
My int is 0x401dbf
My int is 0x401dbf
My int is 0x401dbf
My int is 0x401dbf
My int is 0x401dbf
My int is 0x401dbf
My int is 0x401dbf
My int is 0x401dbf
My int is 0x401dbf

Input Size: 1950
Cache size: 10
Hit Count: 1949
Cache filled 0 times.
My int is 0x401dbf
My int is 0x401dbf
My int is 0x401dbf
My int is 0x401dbf
My int is 0x401dbf
My int is 0x401dbf
My int is 0x401dbf
My int is 0x401dbf
My int is 0x401dbf
My int is 0x401dbf

Input Size: 1960
Cache size: 10
Hit Count: 1959
Cache filled 0 times.
My int is 0x401dbf
My int is 0x401dbf
My int is 0x401dbf
My int is 0x401dbf
My int is 0x401dbf
My int is 0x401dbf
My int is 0x401dbf
My int is 0x401dbf
My int is 0x401dbf
My int is 0x401dbf

Input Size: 1970
Cache size: 10
Hit Count: 1969
Cache filled 0 times.
My int is 0x401dbf
My int is 0x401dbf
My int is 0x401dbf
My int is 0x401dbf
My int is 0x401dbf
My int is 0x401dbf
My int is 0x401dbf
My int is 0x401dbf
My int is 0x401dbf
My int is 0x401dbf

Input Size: 1980
Cache size: 10
Hit Count: 1979
Cache filled 0 times.
My int is 0x401dbf
My int is 0x401dbf
My int is 0x401dbf
My int is 0x401dbf
My int is 0x401dbf
My int is 0x401dbf
My int is 0x401dbf
My int is 0x401dbf
My int is 0x401dbf
My int is 0x401dbf

Input Size: 1990
Cache size: 10
Hit Count: 1989
Cache filled 0 times.
My int is 0x401dbf
My int is 0x401dbf
My int is 0x401dbf
My int is 0x401dbf
My int is 0x401dbf
My int is 0x401dbf
My int is 0x401dbf
My int is 0x401dbf
My int is 0x401dbf
My int is 0x401dbf

Input Size: 2000
Cache size: 10
Hit Count: 1999
Cache filled 0 times.
My int is 0x401dbf
My int is 0x401dbf
My int is 0x401dbf
My int is 0x401dbf
My int is 0x401dbf
My int is 0x401dbf
My int is 0x401dbf
My int is 0x401dbf
My int is 0x401dbf
My int is 0x401dbf

Input Size: 2010
Cache size: 10
Hit Count: 2009
Cache filled 0 times.
My int is 0x401dbf
My int is 0x401dbf
My int is 0x401dbf
My int is 0x401dbf
My int is 0x401dbf
My int is 0x401dbf
My int is 0x401dbf
My int is 0x401dbf
My int is 0x401dbf
My int is 0x401dbf

Input Size: 2020
Cache size: 10
Hit Count: 2019
Cache filled 0 times.
My int is 0x401dbf
My int is 0x401dbf
My int is 0x401dbf
My int is 0x401dbf
My int is 0x401dbf
My int is 0x401dbf
My int is 0x401dbf
My int is 0x401dbf
My int is 0x401dbf
My int is 0x401dbf

Input Size: 2030
Cache size: 10
Hit Count: 2029
Cache filled 0 times.
My int is 0x401dbf
My int is 0x401dbf
My int is 0x401dbf
My int is 0x401dbf
My int is 0x401dbf
My int is 0x401dbf
My int is 0x401dbf
My int is 0x401dbf
My int is 0x401dbf
My int is 0x401dbf

Input Size: 2040
Cache size: 10
Hit Count: 2039
Cache filled 0 times.
My int is 0x401dbf
My int is 0x401dbf
My int is 0x401dbf
My int is 0x401dbf
My int is 0x401dbf
My int is 0x401dbf
My int is 0x401dbf
My int is 0x401dbf
My int is 0x401dbf
My int is 0x401dbf

Input Size: 2050
Cache size: 10
Hit Count: 2049
Cache filled 0 times.
My int is 0x401dbf
My int is 0x401dbf
My int is 0x401dbf
My int is 0x401dbf
My int is 0x401dbf
My int is 0x401dbf
My int is 0x401dbf
My int is 0x401dbf
My int is 0x401dbf
My int is 0x401dbf

Input Size: 2060
Cache size: 10
Hit Count: 2059
Cache filled 0 times.
My int is 0x401dbf
My int is 0x401dbf
My int is 0x401dbf
My int is 0x401dbf
My int is 0x401dbf
My int is 0x401dbf
My int is 0x401dbf
My int is 0x401dbf
My int is 0x401dbf
My int is 0x401dbf

Input Size: 2070
Cache size: 10
Hit Count: 2069
Cache filled 0 times.
My int is 0x401dbf
My int is 0x401dbf
My int is 0x401dbf
My int is 0x401dbf
My int is 0x401dbf
My int is 0x401dbf
My int is 0x401dbf
My int is 0x401dbf
My int is 0x401dbf
My int is 0x401dbf

Input Size: 2080
Cache size: 10
Hit Count: 2079
Cache filled 0 times.
My int is 0x401dbf
My int is 0x401dbf
My int is 0x401dbf
My int is 0x401dbf
My int is 0x401dbf
My int is 0x401dbf
My int is 0x401dbf
My int is 0x401dbf
My int is 0x401dbf
My int is 0x401dbf

Input Size: 2090
Cache size: 10
Hit Count: 2089
Cache filled 0 times.
My int is 0x401dbf
My int is 0x401dbf
My int is 0x401dbf
My int is 0x401dbf
My int is 0x401dbf
My int is 0x401dbf
My int is 0x401dbf
My int is 0x401dbf
My int is 0x401dbf
My int is 0x401dbf

Input Size: 2100
Cache size: 10
Hit Count: 2099
Cache filled 0 times.
My int is 0x401dbf
My int is 0x401dbf
My int is 0x401dbf
My int is 0x401dbf
My int is 0x401dbf
My int is 0x401dbf
My int is 0x401dbf
My int is 0x401dbf
My int is 0x401dbf
My int is 0x401dbf

Input Size: 2110
Cache size: 10
Hit Count: 2109
Cache filled 0 times.
My int is 0x401dbf
My int is 0x401dbf
My int is 0x401dbf
My int is 0x401dbf
My int is 0x401dbf
My int is 0x401dbf
My int is 0x401dbf
My int is 0x401dbf
My int is 0x401dbf
My int is 0x401dbf

Input Size: 2120
Cache size: 10
Hit Count: 2119
Cache filled 0 times.
My int is 0x401dbf
My int is 0x401dbf
My int is 0x401dbf
My int is 0x401dbf
My int is 0x401dbf
My int is 0x401dbf
My int is 0x401dbf
My int is 0x401dbf
My int is 0x401dbf
My int is 0x401dbf

Input Size: 2130
Cache size: 10
Hit Count: 2129
Cache filled 0 times.
My int is 0x401dbf
My int is 0x401dbf
My int is 0x401dbf
My int is 0x401dbf
My int is 0x401dbf
My int is 0x401dbf
My int is 0x401dbf
My int is 0x401dbf
My int is 0x401dbf
My int is 0x401dbf

Input Size: 2140
Cache size: 10
Hit Count: 2139
Cache filled 0 times.
My int is 0x401dbf
My int is 0x401dbf
My int is 0x401dbf
My int is 0x401dbf
My int is 0x401dbf
My int is 0x401dbf
My int is 0x401dbf
My int is 0x401dbf
My int is 0x401dbf
My int is 0x401dbf

Input Size: 2150
Cache size: 10
Hit Count: 2149
Cache filled 0 times.
My int is 0x401dbf
My int is 0x401dbf
My int is 0x401dbf
My int is 0x401dbf
My int is 0x401dbf
My int is 0x401dbf
My int is 0x401dbf
My int is 0x401dbf
My int is 0x401dbf
My int is 0x401dbf

Input Size: 2160
Cache size: 10
Hit Count: 2159
Cache filled 0 times.
My int is 0x401dbf
My int is 0x401dbf
My int is 0x401dbf
My int is 0x401dbf
My int is 0x401dbf
My int is 0x401dbf
My int is 0x401dbf
My int is 0x401dbf
My int is 0x401dbf
My int is 0x401dbf

Input Size: 2170
Cache size: 10
Hit Count: 2169
Cache filled 0 times.
My int is 0x401dbf
My int is 0x401dbf
My int is 0x401dbf
My int is 0x401dbf
My int is 0x401dbf
My int is 0x401dbf
My int is 0x401dbf
My int is 0x401dbf
My int is 0x401dbf
My int is 0x401dbf

Input Size: 2180
Cache size: 10
Hit Count: 2179
Cache filled 0 times.
My int is 0x401dbf
My int is 0x401dbf
My int is 0x401dbf
My int is 0x401dbf
My int is 0x401dbf
My int is 0x401dbf
My int is 0x401dbf
My int is 0x401dbf
My int is 0x401dbf
My int is 0x401dbf

Input Size: 2190
Cache size: 10
Hit Count: 2189
Cache filled 0 times.
My int is 0x401dbf
My int is 0x401dbf
My int is 0x401dbf
My int is 0x401dbf
My int is 0x401dbf
My int is 0x401dbf
My int is 0x401dbf
My int is 0x401dbf
My int is 0x401dbf
My int is 0x401dbf

Input Size: 2200
Cache size: 10
Hit Count: 2199
Cache filled 0 times.
My int is 0x401dbf
My int is 0x401dbf
My int is 0x401dbf
My int is 0x401dbf
My int is 0x401dbf
My int is 0x401dbf
My int is 0x401dbf
My int is 0x401dbf
My int is 0x401dbf
My int is 0x401dbf

Input Size: 2210
Cache size: 10
Hit Count: 2209
Cache filled 0 times.
My int is 0x401dbf
My int is 0x401dbf
My int is 0x401dbf
My int is 0x401dbf
My int is 0x401dbf
My int is 0x401dbf
My int is 0x401dbf
My int is 0x401dbf
My int is 0x401dbf
My int is 0x401dbf

Input Size: 2220
Cache size: 10
Hit Count: 2219
Cache filled 0 times.
My int is 0x401dbf
My int is 0x401dbf
My int is 0x401dbf
My int is 0x401dbf
My int is 0x401dbf
My int is 0x401dbf
My int is 0x401dbf
My int is 0x401dbf
My int is 0x401dbf
My int is 0x401dbf

Input Size: 2230
Cache size: 10
Hit Count: 2229
Cache filled 0 times.
My int is 0x401dbf
My int is 0x401dbf
My int is 0x401dbf
My int is 0x401dbf
My int is 0x401dbf
My int is 0x401dbf
My int is 0x401dbf
My int is 0x401dbf
My int is 0x401dbf
My int is 0x401dbf

Input Size: 2240
Cache size: 10
Hit Count: 2239
Cache filled 0 times.
My int is 0x401dbf
My int is 0x401dbf
My int is 0x401dbf
My int is 0x401dbf
My int is 0x401dbf
My int is 0x401dbf
My int is 0x401dbf
My int is 0x401dbf
My int is 0x401dbf
My int is 0x401dbf

Input Size: 2250
Cache size: 10
Hit Count: 2249
Cache filled 0 times.
My int is 0x401dbf
My int is 0x401dbf
My int is 0x401dbf
My int is 0x401dbf
My int is 0x401dbf
My int is 0x401dbf
My int is 0x401dbf
My int is 0x401dbf
My int is 0x401dbf
My int is 0x401dbf

Input Size: 2260
Cache size: 10
Hit Count: 2259
Cache filled 0 times.
My int is 0x401dbf
My int is 0x401dbf
My int is 0x401dbf
My int is 0x401dbf
My int is 0x401dbf
My int is 0x401dbf
My int is 0x401dbf
My int is 0x401dbf
My int is 0x401dbf
My int is 0x401dbf

Input Size: 2270
Cache size: 10
Hit Count: 2269
Cache filled 0 times.
My int is 0x401dbf
My int is 0x401dbf
My int is 0x401dbf
My int is 0x401dbf
My int is 0x401dbf
My int is 0x401dbf
My int is 0x401dbf
My int is 0x401dbf
My int is 0x401dbf
My int is 0x401dbf

Input Size: 2280
Cache size: 10
Hit Count: 2279
Cache filled 0 times.
My int is 0x401dbf
My int is 0x401dbf
My int is 0x401dbf
My int is 0x401dbf
My int is 0x401dbf
My int is 0x401dbf
My int is 0x401dbf
My int is 0x401dbf
My int is 0x401dbf
My int is 0x401dbf

Input Size: 2290
Cache size: 10
Hit Count: 2289
Cache filled 0 times.
My int is 0x401dbf
My int is 0x401dbf
My int is 0x401dbf
My int is 0x401dbf
My int is 0x401dbf
My int is 0x401dbf
My int is 0x401dbf
My int is 0x401dbf
My int is 0x401dbf
My int is 0x401dbf

Input Size: 2300
Cache size: 10
Hit Count: 2299
Cache filled 0 times.
My int is 0x401dbf
My int is 0x401dbf
My int is 0x401dbf
My int is 0x401dbf
My int is 0x401dbf
My int is 0x401dbf
My int is 0x401dbf
My int is 0x401dbf
My int is 0x401dbf
My int is 0x401dbf

Input Size: 2310
Cache size: 10
Hit Count: 2309
Cache filled 0 times.
My int is 0x401dbf
My int is 0x401dbf
My int is 0x401dbf
My int is 0x401dbf
My int is 0x401dbf
My int is 0x401dbf
My int is 0x401dbf
My int is 0x401dbf
My int is 0x401dbf
My int is 0x401dbf

Input Size: 2320
Cache size: 10
Hit Count: 2319
Cache filled 0 times.
My int is 0x401dbf
My int is 0x401dbf
My int is 0x401dbf
My int is 0x401dbf
My int is 0x401dbf
My int is 0x401dbf
My int is 0x401dbf
My int is 0x401dbf
My int is 0x401dbf
My int is 0x401dbf

Input Size: 2330
Cache size: 10
Hit Count: 2329
Cache filled 0 times.
My int is 0x401dbf
My int is 0x401dbf
My int is 0x401dbf
My int is 0x401dbf
My int is 0x401dbf
My int is 0x401dbf
My int is 0x401dbf
My int is 0x401dbf
My int is 0x401dbf
My int is 0x401dbf

Input Size: 2340
Cache size: 10
Hit Count: 2339
Cache filled 0 times.
My int is 0x401dbf
My int is 0x401dbf
My int is 0x401dbf
My int is 0x401dbf
My int is 0x401dbf
My int is 0x401dbf
My int is 0x401dbf
My int is 0x401dbf
My int is 0x401dbf
My int is 0x401dbf

Input Size: 2350
Cache size: 10
Hit Count: 2349
Cache filled 0 times.
My int is 0x401dbf
My int is 0x401dbf
My int is 0x401dbf
My int is 0x401dbf
My int is 0x401dbf
My int is 0x401dbf
My int is 0x401dbf
My int is 0x401dbf
My int is 0x401dbf
My int is 0x401dbf

Input Size: 2360
Cache size: 10
Hit Count: 2359
Cache filled 0 times.
My int is 0x401dbf
My int is 0x401dbf
My int is 0x401dbf
My int is 0x401dbf
My int is 0x401dbf
My int is 0x401dbf
My int is 0x401dbf
My int is 0x401dbf
My int is 0x401dbf
My int is 0x401dbf

Input Size: 2370
Cache size: 10
Hit Count: 2369
Cache filled 0 times.
My int is 0x401dbf
My int is 0x401dbf
My int is 0x401dbf
My int is 0x401dbf
My int is 0x401dbf
My int is 0x401dbf
My int is 0x401dbf
My int is 0x401dbf
My int is 0x401dbf
My int is 0x401dbf

Input Size: 2380
Cache size: 10
Hit Count: 2379
Cache filled 0 times.
My int is 0x401dbf
My int is 0x401dbf
My int is 0x401dbf
My int is 0x401dbf
My int is 0x401dbf
My int is 0x401dbf
My int is 0x401dbf
My int is 0x401dbf
My int is 0x401dbf
My int is 0x401dbf

Input Size: 2390
Cache size: 10
Hit Count: 2389
Cache filled 0 times.
My int is 0x401dbf
My int is 0x401dbf
My int is 0x401dbf
My int is 0x401dbf
My int is 0x401dbf
My int is 0x401dbf
My int is 0x401dbf
My int is 0x401dbf
My int is 0x401dbf
My int is 0x401dbf

Input Size: 2400
Cache size: 10
Hit Count: 2399
Cache filled 0 times.
My int is 0x401dbf
My int is 0x401dbf
My int is 0x401dbf
My int is 0x401dbf
My int is 0x401dbf
My int is 0x401dbf
My int is 0x401dbf
My int is 0x401dbf
My int is 0x401dbf
My int is 0x401dbf

Input Size: 2410
Cache size: 10
Hit Count: 2409
Cache filled 0 times.
My int is 0x401dbf
My int is 0x401dbf
My int is 0x401dbf
My int is 0x401dbf
My int is 0x401dbf
My int is 0x401dbf
My int is 0x401dbf
My int is 0x401dbf
My int is 0x401dbf
My int is 0x401dbf

Input Size: 2420
Cache size: 10
Hit Count: 2419
Cache filled 0 times.
My int is 0x401dbf
My int is 0x401dbf
My int is 0x401dbf
My int is 0x401dbf
My int is 0x401dbf
My int is 0x401dbf
My int is 0x401dbf
My int is 0x401dbf
My int is 0x401dbf
My int is 0x401dbf

Input Size: 2430
Cache size: 10
Hit Count: 2429
Cache filled 0 times.
My int is 0x401dbf
My int is 0x401dbf
My int is 0x401dbf
My int is 0x401dbf
My int is 0x401dbf
My int is 0x401dbf
My int is 0x401dbf
My int is 0x401dbf
My int is 0x401dbf
My int is 0x401dbf

Input Size: 2440
Cache size: 10
Hit Count: 2439
Cache filled 0 times.
My int is 0x401dbf
My int is 0x401dbf
My int is 0x401dbf
My int is 0x401dbf
My int is 0x401dbf
My int is 0x401dbf
My int is 0x401dbf
My int is 0x401dbf
My int is 0x401dbf
My int is 0x401dbf

Input Size: 2450
Cache size: 10
Hit Count: 2449
Cache filled 0 times.
My int is 0x401dbf
My int is 0x401dbf
My int is 0x401dbf
My int is 0x401dbf
My int is 0x401dbf
My int is 0x401dbf
My int is 0x401dbf
My int is 0x401dbf
My int is 0x401dbf
My int is 0x401dbf

Input Size: 2460
Cache size: 10
Hit Count: 2459
Cache filled 0 times.
My int is 0x401dbf
My int is 0x401dbf
My int is 0x401dbf
My int is 0x401dbf
My int is 0x401dbf
My int is 0x401dbf
My int is 0x401dbf
My int is 0x401dbf
My int is 0x401dbf
My int is 0x401dbf

Input Size: 2470
Cache size: 10
Hit Count: 2469
Cache filled 0 times.
My int is 0x401dbf
My int is 0x401dbf
My int is 0x401dbf
My int is 0x401dbf
My int is 0x401dbf
My int is 0x401dbf
My int is 0x401dbf
My int is 0x401dbf
My int is 0x401dbf
My int is 0x401dbf

Input Size: 2480
Cache size: 10
Hit Count: 2479
Cache filled 0 times.
My int is 0x401dbf
My int is 0x401dbf
My int is 0x401dbf
My int is 0x401dbf
My int is 0x401dbf
My int is 0x401dbf
My int is 0x401dbf
My int is 0x401dbf
My int is 0x401dbf
My int is 0x401dbf

Input Size: 2490
Cache size: 10
Hit Count: 2489
Cache filled 0 times.
My int is 0x401dbf
My int is 0x401dbf
My int is 0x401dbf
My int is 0x401dbf
My int is 0x401dbf
My int is 0x401dbf
My int is 0x401dbf
My int is 0x401dbf
My int is 0x401dbf
My int is 0x401dbf

Input Size: 2500
Cache size: 10
Hit Count: 2499
Cache filled 0 times.
My int is 0x401dbf
My int is 0x401dbf
My int is 0x401dbf
My int is 0x401dbf
My int is 0x401dbf
My int is 0x401dbf
My int is 0x401dbf
My int is 0x401dbf
My int is 0x401dbf
My int is 0x401dbf

Input Size: 2510
Cache size: 10
Hit Count: 2509
Cache filled 0 times.
My int is 0x401dbf
My int is 0x401dbf
My int is 0x401dbf
My int is 0x401dbf
My int is 0x401dbf
My int is 0x401dbf
My int is 0x401dbf
My int is 0x401dbf
My int is 0x401dbf
My int is 0x401dbf

Input Size: 2520
Cache size: 10
Hit Count: 2519
Cache filled 0 times.
My int is 0x401dbf
My int is 0x401dbf
My int is 0x401dbf
My int is 0x401dbf
My int is 0x401dbf
My int is 0x401dbf
My int is 0x401dbf
My int is 0x401dbf
My int is 0x401dbf
My int is 0x401dbf

Input Size: 2530
Cache size: 10
Hit Count: 2529
Cache filled 0 times.
My int is 0x401dbf
My int is 0x401dbf
My int is 0x401dbf
My int is 0x401dbf
My int is 0x401dbf
My int is 0x401dbf
My int is 0x401dbf
My int is 0x401dbf
My int is 0x401dbf
My int is 0x401dbf

Input Size: 2540
Cache size: 10
Hit Count: 2539
Cache filled 0 times.
My int is 0x401dbf
My int is 0x401dbf
My int is 0x401dbf
My int is 0x401dbf
My int is 0x401dbf
My int is 0x401dbf
My int is 0x401dbf
My int is 0x401dbf
My int is 0x401dbf
My int is 0x401dbf

Input Size: 2550
Cache size: 10
Hit Count: 2549
Cache filled 0 times.
My int is 0x401dbf
My int is 0x401dbf
My int is 0x401dbf
My int is 0x401dbf
My int is 0x401dbf
My int is 0x401dbf
My int is 0x401dbf
My int is 0x401dbf
My int is 0x401dbf
My int is 0x401dbf

Input Size: 2560
Cache size: 10
Hit Count: 2559
Cache filled 0 times.
My int is 0x401dbf
My int is 0x401dbf
My int is 0x401dbf
My int is 0x401dbf
My int is 0x401dbf
My int is 0x401dbf
My int is 0x401dbf
My int is 0x401dbf
My int is 0x401dbf
My int is 0x401dbf

Input Size: 2570
Cache size: 10
Hit Count: 2569
Cache filled 0 times.
My int is 0x401dbf
My int is 0x401dbf
My int is 0x401dbf
My int is 0x401dbf
My int is 0x401dbf
My int is 0x401dbf
My int is 0x401dbf
My int is 0x401dbf
My int is 0x401dbf
My int is 0x401dbf

Input Size: 2580
Cache size: 10
Hit Count: 2579
Cache filled 0 times.
My int is 0x401dbf
My int is 0x401dbf
My int is 0x401dbf
My int is 0x401dbf
My int is 0x401dbf
My int is 0x401dbf
My int is 0x401dbf
My int is 0x401dbf
My int is 0x401dbf
My int is 0x401dbf

Input Size: 2590
Cache size: 10
Hit Count: 2589
Cache filled 0 times.
My int is 0x401dbf
My int is 0x401dbf
My int is 0x401dbf
My int is 0x401dbf
My int is 0x401dbf
My int is 0x401dbf
My int is 0x401dbf
My int is 0x401dbf
My int is 0x401dbf
My int is 0x401dbf

Input Size: 2600
Cache size: 10
Hit Count: 2599
Cache filled 0 times.
My int is 0x401dbf
My int is 0x401dbf
My int is 0x401dbf
My int is 0x401dbf
My int is 0x401dbf
My int is 0x401dbf
My int is 0x401dbf
My int is 0x401dbf
My int is 0x401dbf
My int is 0x401dbf

Input Size: 2610
Cache size: 10
Hit Count: 2609
Cache filled 0 times.
My int is 0x401dbf
My int is 0x401dbf
My int is 0x401dbf
My int is 0x401dbf
My int is 0x401dbf
My int is 0x401dbf
My int is 0x401dbf
My int is 0x401dbf
My int is 0x401dbf
My int is 0x401dbf

Input Size: 2620
Cache size: 10
Hit Count: 2619
Cache filled 0 times.
My int is 0x401dbf
My int is 0x401dbf
My int is 0x401dbf
My int is 0x401dbf
My int is 0x401dbf
My int is 0x401dbf
My int is 0x401dbf
My int is 0x401dbf
My int is 0x401dbf
My int is 0x401dbf

Input Size: 2630
Cache size: 10
Hit Count: 2629
Cache filled 0 times.
My int is 0x401dbf
My int is 0x401dbf
My int is 0x401dbf
My int is 0x401dbf
My int is 0x401dbf
My int is 0x401dbf
My int is 0x401dbf
My int is 0x401dbf
My int is 0x401dbf
My int is 0x401dbf

Input Size: 2640
Cache size: 10
Hit Count: 2639
Cache filled 0 times.
My int is 0x401dbf
My int is 0x401dbf
My int is 0x401dbf
My int is 0x401dbf
My int is 0x401dbf
My int is 0x401dbf
My int is 0x401dbf
My int is 0x401dbf
My int is 0x401dbf
My int is 0x401dbf

Input Size: 2650
Cache size: 10
Hit Count: 2649
Cache filled 0 times.
My int is 0x401dbf
My int is 0x401dbf
My int is 0x401dbf
My int is 0x401dbf
My int is 0x401dbf
My int is 0x401dbf
My int is 0x401dbf
My int is 0x401dbf
My int is 0x401dbf
My int is 0x401dbf

Input Size: 2660
Cache size: 10
Hit Count: 2659
Cache filled 0 times.
My int is 0x401dbf
My int is 0x401dbf
My int is 0x401dbf
My int is 0x401dbf
My int is 0x401dbf
My int is 0x401dbf
My int is 0x401dbf
My int is 0x401dbf
My int is 0x401dbf
My int is 0x401dbf

Input Size: 2670
Cache size: 10
Hit Count: 2669
Cache filled 0 times.
My int is 0x401dbf
My int is 0x401dbf
My int is 0x401dbf
My int is 0x401dbf
My int is 0x401dbf
My int is 0x401dbf
My int is 0x401dbf
My int is 0x401dbf
My int is 0x401dbf
My int is 0x401dbf

Input Size: 2680
Cache size: 10
Hit Count: 2679
Cache filled 0 times.
My int is 0x401dbf
My int is 0x401dbf
My int is 0x401dbf
My int is 0x401dbf
My int is 0x401dbf
My int is 0x401dbf
My int is 0x401dbf
My int is 0x401dbf
My int is 0x401dbf
My int is 0x401dbf

Input Size: 2690
Cache size: 10
Hit Count: 2689
Cache filled 0 times.
My int is 0x401dbf
My int is 0x401dbf
My int is 0x401dbf
My int is 0x401dbf
My int is 0x401dbf
My int is 0x401dbf
My int is 0x401dbf
My int is 0x401dbf
My int is 0x401dbf
My int is 0x401dbf

Input Size: 2700
Cache size: 10
Hit Count: 2699
Cache filled 0 times.
My int is 0x401dbf
My int is 0x401dbf
My int is 0x401dbf
My int is 0x401dbf
My int is 0x401dbf
My int is 0x401dbf
My int is 0x401dbf
My int is 0x401dbf
My int is 0x401dbf
My int is 0x401dbf

Input Size: 2710
Cache size: 10
Hit Count: 2709
Cache filled 0 times.
My int is 0x401dbf
My int is 0x401dbf
My int is 0x401dbf
My int is 0x401dbf
My int is 0x401dbf
My int is 0x401dbf
My int is 0x401dbf
My int is 0x401dbf
My int is 0x401dbf
My int is 0x401dbf

Input Size: 2720
Cache size: 10
Hit Count: 2719
Cache filled 0 times.
My int is 0x401dbf
My int is 0x401dbf
My int is 0x401dbf
My int is 0x401dbf
My int is 0x401dbf
My int is 0x401dbf
My int is 0x401dbf
My int is 0x401dbf
My int is 0x401dbf
My int is 0x401dbf

Input Size: 2730
Cache size: 10
Hit Count: 2729
Cache filled 0 times.
My int is 0x401dbf
My int is 0x401dbf
My int is 0x401dbf
My int is 0x401dbf
My int is 0x401dbf
My int is 0x401dbf
My int is 0x401dbf
My int is 0x401dbf
My int is 0x401dbf
My int is 0x401dbf

Input Size: 2740
Cache size: 10
Hit Count: 2739
Cache filled 0 times.
My int is 0x401dbf
My int is 0x401dbf
My int is 0x401dbf
My int is 0x401dbf
My int is 0x401dbf
My int is 0x401dbf
My int is 0x401dbf
My int is 0x401dbf
My int is 0x401dbf
My int is 0x401dbf

Input Size: 2750
Cache size: 10
Hit Count: 2749
Cache filled 0 times.
My int is 0x401dbf
My int is 0x401dbf
My int is 0x401dbf
My int is 0x401dbf
My int is 0x401dbf
My int is 0x401dbf
My int is 0x401dbf
My int is 0x401dbf
My int is 0x401dbf
My int is 0x401dbf

Input Size: 2760
Cache size: 10
Hit Count: 2759
Cache filled 0 times.
My int is 0x401dbf
My int is 0x401dbf
My int is 0x401dbf
My int is 0x401dbf
My int is 0x401dbf
My int is 0x401dbf
My int is 0x401dbf
My int is 0x401dbf
My int is 0x401dbf
My int is 0x401dbf

Input Size: 2770
Cache size: 10
Hit Count: 2769
Cache filled 0 times.
My int is 0x401dbf
My int is 0x401dbf
My int is 0x401dbf
My int is 0x401dbf
My int is 0x401dbf
My int is 0x401dbf
My int is 0x401dbf
My int is 0x401dbf
My int is 0x401dbf
My int is 0x401dbf

Input Size: 2780
Cache size: 10
Hit Count: 2779
Cache filled 0 times.
My int is 0x401dbf
My int is 0x401dbf
My int is 0x401dbf
My int is 0x401dbf
My int is 0x401dbf
My int is 0x401dbf
My int is 0x401dbf
My int is 0x401dbf
My int is 0x401dbf
My int is 0x401dbf

Input Size: 2790
Cache size: 10
Hit Count: 2789
Cache filled 0 times.
My int is 0x401dbf
My int is 0x401dbf
My int is 0x401dbf
My int is 0x401dbf
My int is 0x401dbf
My int is 0x401dbf
My int is 0x401dbf
My int is 0x401dbf
My int is 0x401dbf
My int is 0x401dbf

Input Size: 2800
Cache size: 10
Hit Count: 2799
Cache filled 0 times.
My int is 0x401dbf
My int is 0x401dbf
My int is 0x401dbf
My int is 0x401dbf
My int is 0x401dbf
My int is 0x401dbf
My int is 0x401dbf
My int is 0x401dbf
My int is 0x401dbf
My int is 0x401dbf

Input Size: 2810
Cache size: 10
Hit Count: 2809
Cache filled 0 times.
My int is 0x401dbf
My int is 0x401dbf
My int is 0x401dbf
My int is 0x401dbf
My int is 0x401dbf
My int is 0x401dbf
My int is 0x401dbf
My int is 0x401dbf
My int is 0x401dbf
My int is 0x401dbf

Input Size: 2820
Cache size: 10
Hit Count: 2819
Cache filled 0 times.
My int is 0x401dbf
My int is 0x401dbf
My int is 0x401dbf
My int is 0x401dbf
My int is 0x401dbf
My int is 0x401dbf
My int is 0x401dbf
My int is 0x401dbf
My int is 0x401dbf
My int is 0x401dbf

Input Size: 2830
Cache size: 10
Hit Count: 2829
Cache filled 0 times.
My int is 0x401dbf
My int is 0x401dbf
My int is 0x401dbf
My int is 0x401dbf
My int is 0x401dbf
My int is 0x401dbf
My int is 0x401dbf
My int is 0x401dbf
My int is 0x401dbf
My int is 0x401dbf

Input Size: 2840
Cache size: 10
Hit Count: 2839
Cache filled 0 times.
My int is 0x401dbf
My int is 0x401dbf
My int is 0x401dbf
My int is 0x401dbf
My int is 0x401dbf
My int is 0x401dbf
My int is 0x401dbf
My int is 0x401dbf
My int is 0x401dbf
My int is 0x401dbf

Input Size: 2850
Cache size: 10
Hit Count: 2849
Cache filled 0 times.
My int is 0x401dbf
My int is 0x401dbf
My int is 0x401dbf
My int is 0x401dbf
My int is 0x401dbf
My int is 0x401dbf
My int is 0x401dbf
My int is 0x401dbf
My int is 0x401dbf
My int is 0x401dbf

Input Size: 2860
Cache size: 10
Hit Count: 2859
Cache filled 0 times.
My int is 0x401dbf
My int is 0x401dbf
My int is 0x401dbf
My int is 0x401dbf
My int is 0x401dbf
My int is 0x401dbf
My int is 0x401dbf
My int is 0x401dbf
My int is 0x401dbf
My int is 0x401dbf

Input Size: 2870
Cache size: 10
Hit Count: 2869
Cache filled 0 times.
My int is 0x401dbf
My int is 0x401dbf
My int is 0x401dbf
My int is 0x401dbf
My int is 0x401dbf
My int is 0x401dbf
My int is 0x401dbf
My int is 0x401dbf
My int is 0x401dbf
My int is 0x401dbf

Input Size: 2880
Cache size: 10
Hit Count: 2879
Cache filled 0 times.
My int is 0x401dbf
My int is 0x401dbf
My int is 0x401dbf
My int is 0x401dbf
My int is 0x401dbf
My int is 0x401dbf
My int is 0x401dbf
My int is 0x401dbf
My int is 0x401dbf
My int is 0x401dbf

Input Size: 2890
Cache size: 10
Hit Count: 2889
Cache filled 0 times.
My int is 0x401dbf
My int is 0x401dbf
My int is 0x401dbf
My int is 0x401dbf
My int is 0x401dbf
My int is 0x401dbf
My int is 0x401dbf
My int is 0x401dbf
My int is 0x401dbf
My int is 0x401dbf

Input Size: 2900
Cache size: 10
Hit Count: 2899
Cache filled 0 times.
My int is 0x401dbf
My int is 0x401dbf
My int is 0x401dbf
My int is 0x401dbf
My int is 0x401dbf
My int is 0x401dbf
My int is 0x401dbf
My int is 0x401dbf
My int is 0x401dbf
My int is 0x401dbf

Input Size: 2910
Cache size: 10
Hit Count: 2909
Cache filled 0 times.
My int is 0x401dbf
My int is 0x401dbf
My int is 0x401dbf
My int is 0x401dbf
My int is 0x401dbf
My int is 0x401dbf
My int is 0x401dbf
My int is 0x401dbf
My int is 0x401dbf
My int is 0x401dbf

Input Size: 2920
Cache size: 10
Hit Count: 2919
Cache filled 0 times.
My int is 0x401dbf
My int is 0x401dbf
My int is 0x401dbf
My int is 0x401dbf
My int is 0x401dbf
My int is 0x401dbf
My int is 0x401dbf
My int is 0x401dbf
My int is 0x401dbf
My int is 0x401dbf

Input Size: 2930
Cache size: 10
Hit Count: 2929
Cache filled 0 times.
My int is 0x401dbf
My int is 0x401dbf
My int is 0x401dbf
My int is 0x401dbf
My int is 0x401dbf
My int is 0x401dbf
My int is 0x401dbf
My int is 0x401dbf
My int is 0x401dbf
My int is 0x401dbf

Input Size: 2940
Cache size: 10
Hit Count: 2939
Cache filled 0 times.
My int is 0x401dbf
My int is 0x401dbf
My int is 0x401dbf
My int is 0x401dbf
My int is 0x401dbf
My int is 0x401dbf
My int is 0x401dbf
My int is 0x401dbf
My int is 0x401dbf
My int is 0x401dbf

Input Size: 2950
Cache size: 10
Hit Count: 2949
Cache filled 0 times.
My int is 0x401dbf
My int is 0x401dbf
My int is 0x401dbf
My int is 0x401dbf
My int is 0x401dbf
My int is 0x401dbf
My int is 0x401dbf
My int is 0x401dbf
My int is 0x401dbf
My int is 0x401dbf

Input Size: 2960
Cache size: 10
Hit Count: 2959
Cache filled 0 times.
My int is 0x401dbf
My int is 0x401dbf
My int is 0x401dbf
My int is 0x401dbf
My int is 0x401dbf
My int is 0x401dbf
My int is 0x401dbf
My int is 0x401dbf
My int is 0x401dbf
My int is 0x401dbf

Input Size: 2970
Cache size: 10
Hit Count: 2969
Cache filled 0 times.
My int is 0x401dbf
My int is 0x401dbf
My int is 0x401dbf
My int is 0x401dbf
My int is 0x401dbf
My int is 0x401dbf
My int is 0x401dbf
My int is 0x401dbf
My int is 0x401dbf
My int is 0x401dbf

Input Size: 2980
Cache size: 10
Hit Count: 2979
Cache filled 0 times.
My int is 0x401dbf
My int is 0x401dbf
My int is 0x401dbf
My int is 0x401dbf
My int is 0x401dbf
My int is 0x401dbf
My int is 0x401dbf
My int is 0x401dbf
My int is 0x401dbf
My int is 0x401dbf

Input Size: 2990
Cache size: 10
Hit Count: 2989
Cache filled 0 times.
My int is 0x401dbf
My int is 0x401dbf
My int is 0x401dbf
My int is 0x401dbf
My int is 0x401dbf
My int is 0x401dbf
My int is 0x401dbf
My int is 0x401dbf
My int is 0x401dbf
My int is 0x401dbf

Input Size: 3000
Cache size: 10
Hit Count: 2999
Cache filled 0 times.
My int is 0x401dbf
My int is 0x401dbf
My int is 0x401dbf
My int is 0x401dbf
My int is 0x401dbf
My int is 0x401dbf
My int is 0x401dbf
My int is 0x401dbf
My int is 0x401dbf
My int is 0x401dbf

Input Size: 3010
Cache size: 10
Hit Count: 3009
Cache filled 0 times.
My int is 0x401dbf
My int is 0x401dbf
My int is 0x401dbf
My int is 0x401dbf
My int is 0x401dbf
My int is 0x401dbf
My int is 0x401dbf
My int is 0x401dbf
My int is 0x401dbf
My int is 0x401dbf

Input Size: 3020
Cache size: 10
Hit Count: 3019
Cache filled 0 times.
My int is 0x401dbf
My int is 0x401dbf
My int is 0x401dbf
My int is 0x401dbf
My int is 0x401dbf
My int is 0x401dbf
My int is 0x401dbf
My int is 0x401dbf
My int is 0x401dbf
My int is 0x401dbf

Input Size: 3030
Cache size: 10
Hit Count: 3029
Cache filled 0 times.
My int is 0x401dbf
My int is 0x401dbf
My int is 0x401dbf
My int is 0x401dbf
My int is 0x401dbf
My int is 0x401dbf
My int is 0x401dbf
My int is 0x401dbf
My int is 0x401dbf
My int is 0x401dbf

Input Size: 3040
Cache size: 10
Hit Count: 3039
Cache filled 0 times.
My int is 0x401dbf
My int is 0x401dbf
My int is 0x401dbf
My int is 0x401dbf
My int is 0x401dbf
My int is 0x401dbf
My int is 0x401dbf
My int is 0x401dbf
My int is 0x401dbf
My int is 0x401dbf

Input Size: 3050
Cache size: 10
Hit Count: 3049
Cache filled 0 times.
My int is 0x401dbf
My int is 0x401dbf
My int is 0x401dbf
My int is 0x401dbf
My int is 0x401dbf
My int is 0x401dbf
My int is 0x401dbf
My int is 0x401dbf
My int is 0x401dbf
[...]
My int is 0x401dbf
My int is 0x401dbf
My int is 0x401dbf
My int is 0x401dbf
My int is 0x401dbf
My int is 0x401dbf

Input Size: 75780
Cache size: 10
Hit Count: 75779
Cache filled 0 times.
My int is 0x401dbf
My int is 0x401dbf
My int is 0x401dbf
My int is 0x401dbf
My int is 0x401dbf
My int is 0x401dbf
My int is 0x401dbf
My int is 0x401dbf
My int is 0x401dbf
My int is 0x401dbf

Input Size: 75790
Cache size: 10
Hit Count: 75789
Cache filled 0 times.
My int is 0x401dbf
My int is 0x401dbf
My int is 0x401dbf
My int is 0x401dbf
My int is 0x401dbf
My int is 0x401dbf
My int is 0x401dbf
My int is 0x401dbf
My int is 0x401dbf
My int is 0x401dbf

Input Size: 75800
Cache size: 10
Hit Count: 75799
Cache filled 0 times.
My int is 0x401dbf
My int is 0x401dbf
My int is 0x401dbf
My int is 0x401dbf
My int is 0x401dbf
My int is 0x401dbf
My int is 0x401dbf
My int is 0x401dbf
My int is 0x401dbf
My int is 0x401dbf

Input Size: 75810
Cache size: 10
Hit Count: 75809
Cache filled 0 times.
My int is 0x401dbf
My int is 0x401dbf
My int is 0x401dbf
My int is 0x401dbf
My int is 0x401dbf
My int is 0x401dbf
My int is 0x401dbf
My int is 0x401dbf
My int is 0x401dbf
My int is 0x401dbf

Input Size: 75820
Cache size: 10
Hit Count: 75819
Cache filled 0 times.
My int is 0x401dbf
My int is 0x401dbf
My int is 0x401dbf
My int is 0x401dbf
My int is 0x401dbf
My int is 0x401dbf
My int is 0x401dbf
My int is 0x401dbf
My int is 0x401dbf
My int is 0x401dbf

Input Size: 75830
Cache size: 10
Hit Count: 75829
Cache filled 0 times.
My int is 0x401dbf
My int is 0x401dbf
My int is 0x401dbf
My int is 0x401dbf
My int is 0x401dbf
My int is 0x401dbf
My int is 0x401dbf
My int is 0x401dbf
My int is 0x401dbf
My int is 0x401dbf

Input Size: 75840
Cache size: 10
Hit Count: 75839
Cache filled 0 times.
My int is 0x401dbf
My int is 0x401dbf
My int is 0x401dbf
My int is 0x401dbf
My int is 0x401dbf
My int is 0x401dbf
My int is 0x401dbf
My int is 0x401dbf
My int is 0x401dbf
My int is 0x401dbf

Input Size: 75850
Cache size: 10
Hit Count: 75849
Cache filled 0 times.
My int is 0x401dbf
My int is 0x401dbf
My int is 0x401dbf
My int is 0x401dbf
My int is 0x401dbf
My int is 0x401dbf
My int is 0x401dbf
My int is 0x401dbf
My int is 0x401dbf
My int is 0x401dbf

Input Size: 75860
Cache size: 10
Hit Count: 75859
Cache filled 0 times.
My int is 0x401dbf
My int is 0x401dbf
My int is 0x401dbf
My int is 0x401dbf
My int is 0x401dbf
My int is 0x401dbf
My int is 0x401dbf
My int is 0x401dbf
My int is 0x401dbf
My int is 0x401dbf

Input Size: 75870
Cache size: 10
Hit Count: 75869
Cache filled 0 times.
My int is 0x401dbf
My int is 0x401dbf
My int is 0x401dbf
My int is 0x401dbf
My int is 0x401dbf
My int is 0x401dbf
My int is 0x401dbf
My int is 0x401dbf
My int is 0x401dbf
My int is 0x401dbf

Input Size: 75880
Cache size: 10
Hit Count: 75879
Cache filled 0 times.
My int is 0x401dbf
My int is 0x401dbf
My int is 0x401dbf
My int is 0x401dbf
My int is 0x401dbf
My int is 0x401dbf
My int is 0x401dbf
My int is 0x401dbf
My int is 0x401dbf
My int is 0x401dbf

Input Size: 75890
Cache size: 10
Hit Count: 75889
Cache filled 0 times.
My int is 0x401dbf
My int is 0x401dbf
My int is 0x401dbf
My int is 0x401dbf
My int is 0x401dbf
My int is 0x401dbf
My int is 0x401dbf
My int is 0x401dbf
My int is 0x401dbf
My int is 0x401dbf

Input Size: 75900
Cache size: 10
Hit Count: 75899
Cache filled 0 times.
My int is 0x401dbf
My int is 0x401dbf
My int is 0x401dbf
My int is 0x401dbf
My int is 0x401dbf
My int is 0x401dbf
My int is 0x401dbf
My int is 0x401dbf
My int is 0x401dbf
My int is 0x401dbf

Input Size: 75910
Cache size: 10
Hit Count: 75909
Cache filled 0 times.
My int is 0x401dbf
My int is 0x401dbf
My int is 0x401dbf
My int is 0x401dbf
My int is 0x401dbf
My int is 0x401dbf
My int is 0x401dbf
My int is 0x401dbf
My int is 0x401dbf
My int is 0x401dbf

Input Size: 75920
Cache size: 10
Hit Count: 75919
Cache filled 0 times.
My int is 0x401dbf
My int is 0x401dbf
My int is 0x401dbf
My int is 0x401dbf
My int is 0x401dbf
My int is 0x401dbf
My int is 0x401dbf
My int is 0x401dbf
My int is 0x401dbf
My int is 0x401dbf

Input Size: 75930
Cache size: 10
Hit Count: 75929
Cache filled 0 times.
My int is 0x401dbf
My int is 0x401dbf
My int is 0x401dbf
My int is 0x401dbf
My int is 0x401dbf
My int is 0x401dbf
My int is 0x401dbf
My int is 0x401dbf
My int is 0x401dbf
My int is 0x401dbf

Input Size: 75940
Cache size: 10
Hit Count: 75939
Cache filled 0 times.
My int is 0x401dbf
My int is 0x401dbf
My int is 0x401dbf
My int is 0x401dbf
My int is 0x401dbf
My int is 0x401dbf
My int is 0x401dbf
My int is 0x401dbf
My int is 0x401dbf
My int is 0x401dbf

Input Size: 75950
Cache size: 10
Hit Count: 75949
Cache filled 0 times.
My int is 0x401dbf
My int is 0x401dbf
My int is 0x401dbf
My int is 0x401dbf
My int is 0x401dbf
My int is 0x401dbf
My int is 0x401dbf
My int is 0x401dbf
My int is 0x401dbf
My int is 0x401dbf

Input Size: 75960
Cache size: 10
Hit Count: 75959
Cache filled 0 times.
My int is 0x401dbf
My int is 0x401dbf
My int is 0x401dbf
My int is 0x401dbf
My int is 0x401dbf
My int is 0x401dbf
My int is 0x401dbf
My int is 0x401dbf
My int is 0x401dbf
My int is 0x401dbf

Input Size: 75970
Cache size: 10
Hit Count: 75969
Cache filled 0 times.
My int is 0x401dbf
My int is 0x401dbf
My int is 0x401dbf
My int is 0x401dbf
My int is 0x401dbf
My int is 0x401dbf
My int is 0x401dbf
My int is 0x401dbf
My int is 0x401dbf
My int is 0x401dbf

Input Size: 75980
Cache size: 10
Hit Count: 75979
Cache filled 0 times.
My int is 0x401dbf
My int is 0x401dbf
My int is 0x401dbf
My int is 0x401dbf
My int is 0x401dbf
My int is 0x401dbf
My int is 0x401dbf
My int is 0x401dbf
My int is 0x401dbf
My int is 0x401dbf

Input Size: 75990
Cache size: 10
Hit Count: 75989
Cache filled 0 times.
My int is 0x401dbf
My int is 0x401dbf
My int is 0x401dbf
My int is 0x401dbf
My int is 0x401dbf
My int is 0x401dbf
My int is 0x401dbf
My int is 0x401dbf
My int is 0x401dbf
My int is 0x401dbf

Input Size: 76000
Cache size: 10
Hit Count: 75999
Cache filled 0 times.
My int is 0x401dbf
My int is 0x401dbf
My int is 0x401dbf
My int is 0x401dbf
My int is 0x401dbf
My int is 0x401dbf
My int is 0x401dbf
My int is 0x401dbf
My int is 0x401dbf
My int is 0x401dbf

Input Size: 76010
Cache size: 10
Hit Count: 76009
Cache filled 0 times.
My int is 0x401dbf
My int is 0x401dbf
My int is 0x401dbf
My int is 0x401dbf
My int is 0x401dbf
My int is 0x401dbf
My int is 0x401dbf
My int is 0x401dbf
My int is 0x401dbf
My int is 0x401dbf

Input Size: 76020
Cache size: 10
Hit Count: 76019
Cache filled 0 times.
My int is 0x401dbf
My int is 0x401dbf
My int is 0x401dbf
My int is 0x401dbf
My int is 0x401dbf
My int is 0x401dbf
My int is 0x401dbf
My int is 0x401dbf
My int is 0x401dbf
My int is 0x401dbf

Input Size: 76030
Cache size: 10
Hit Count: 76029
Cache filled 0 times.
My int is 0x401dbf
My int is 0x401dbf
My int is 0x401dbf
My int is 0x401dbf
My int is 0x401dbf
My int is 0x401dbf
My int is 0x401dbf
My int is 0x401dbf
My int is 0x401dbf
My int is 0x401dbf

Input Size: 76040
Cache size: 10
Hit Count: 76039
Cache filled 0 times.
My int is 0x401dbf
My int is 0x401dbf
My int is 0x401dbf
My int is 0x401dbf
My int is 0x401dbf
My int is 0x401dbf
My int is 0x401dbf
My int is 0x401dbf
My int is 0x401dbf
My int is 0x401dbf

Input Size: 76050
Cache size: 10
Hit Count: 76049
Cache filled 0 times.
My int is 0x401dbf
My int is 0x401dbf
My int is 0x401dbf
My int is 0x401dbf
My int is 0x401dbf
My int is 0x401dbf
My int is 0x401dbf
My int is 0x401dbf
My int is 0x401dbf
My int is 0x401dbf

Input Size: 76060
Cache size: 10
Hit Count: 76059
Cache filled 0 times.
My int is 0x401dbf
My int is 0x401dbf
My int is 0x401dbf
My int is 0x401dbf
My int is 0x401dbf
My int is 0x401dbf
My int is 0x401dbf
My int is 0x401dbf
My int is 0x401dbf
My int is 0x401dbf

Input Size: 76070
Cache size: 10
Hit Count: 76069
Cache filled 0 times.
My int is 0x401dbf
My int is 0x401dbf
My int is 0x401dbf
My int is 0x401dbf
My int is 0x401dbf
My int is 0x401dbf
My int is 0x401dbf
My int is 0x401dbf
My int is 0x401dbf
My int is 0x401dbf

Input Size: 76080
Cache size: 10
Hit Count: 76079
Cache filled 0 times.
My int is 0x401dbf
My int is 0x401dbf
My int is 0x401dbf
My int is 0x401dbf
My int is 0x401dbf
My int is 0x401dbf
My int is 0x401dbf
My int is 0x401dbf
My int is 0x401dbf
My int is 0x401dbf

Input Size: 76090
Cache size: 10
Hit Count: 76089
Cache filled 0 times.
My int is 0x401dbf
My int is 0x401dbf
My int is 0x401dbf
My int is 0x401dbf
My int is 0x401dbf
My int is 0x401dbf
My int is 0x401dbf
My int is 0x401dbf
My int is 0x401dbf
My int is 0x401dbf

Input Size: 76100
Cache size: 10
Hit Count: 76099
Cache filled 0 times.
My int is 0x401dbf
My int is 0x401dbf
My int is 0x401dbf
My int is 0x401dbf
My int is 0x401dbf
My int is 0x401dbf
My int is 0x401dbf
My int is 0x401dbf
My int is 0x401dbf
My int is 0x401dbf

Input Size: 76110
Cache size: 10
Hit Count: 76109
Cache filled 0 times.
My int is 0x401dbf
My int is 0x401dbf
My int is 0x401dbf
My int is 0x401dbf
My int is 0x401dbf
My int is 0x401dbf
My int is 0x401dbf
My int is 0x401dbf
My int is 0x401dbf
My int is 0x401dbf

Input Size: 76120
Cache size: 10
Hit Count: 76119
Cache filled 0 times.
My int is 0x401dbf
My int is 0x401dbf
My int is 0x401dbf
My int is 0x401dbf
My int is 0x401dbf
My int is 0x401dbf
My int is 0x401dbf
My int is 0x401dbf
My int is 0x401dbf
My int is 0x401dbf

Input Size: 76130
Cache size: 10
Hit Count: 76129
Cache filled 0 times.
My int is 0x401dbf
My int is 0x401dbf
My int is 0x401dbf
My int is 0x401dbf
My int is 0x401dbf
My int is 0x401dbf
My int is 0x401dbf
My int is 0x401dbf
My int is 0x401dbf
My int is 0x401dbf

Input Size: 76140
Cache size: 10
Hit Count: 76139
Cache filled 0 times.
My int is 0x401dbf
My int is 0x401dbf
My int is 0x401dbf
My int is 0x401dbf
My int is 0x401dbf
My int is 0x401dbf
My int is 0x401dbf
My int is 0x401dbf
My int is 0x401dbf
My int is 0x401dbf

Input Size: 76150
Cache size: 10
Hit Count: 76149
Cache filled 0 times.
My int is 0x401dbf
My int is 0x401dbf
My int is 0x401dbf
My int is 0x401dbf
My int is 0x401dbf
My int is 0x401dbf
My int is 0x401dbf
My int is 0x401dbf
My int is 0x401dbf
My int is 0x401dbf

Input Size: 76160
Cache size: 10
Hit Count: 76159
Cache filled 0 times.
My int is 0x401dbf
My int is 0x401dbf
My int is 0x401dbf
My int is 0x401dbf
My int is 0x401dbf
My int is 0x401dbf
My int is 0x401dbf
My int is 0x401dbf
My int is 0x401dbf
My int is 0x401dbf

Input Size: 76170
Cache size: 10
Hit Count: 76169
Cache filled 0 times.
My int is 0x401dbf
My int is 0x401dbf
My int is 0x401dbf
My int is 0x401dbf
My int is 0x401dbf
My int is 0x401dbf
My int is 0x401dbf
My int is 0x401dbf
My int is 0x401dbf
My int is 0x401dbf

Input Size: 76180
Cache size: 10
Hit Count: 76179
Cache filled 0 times.
My int is 0x401dbf
My int is 0x401dbf
My int is 0x401dbf
My int is 0x401dbf
My int is 0x401dbf
My int is 0x401dbf
My int is 0x401dbf
My int is 0x401dbf
My int is 0x401dbf
My int is 0x401dbf

Input Size: 76190
Cache size: 10
Hit Count: 76189
Cache filled 0 times.
My int is 0x401dbf
My int is 0x401dbf
My int is 0x401dbf
My int is 0x401dbf
My int is 0x401dbf
My int is 0x401dbf
My int is 0x401dbf
My int is 0x401dbf
My int is 0x401dbf
My int is 0x401dbf

Input Size: 76200
Cache size: 10
Hit Count: 76199
Cache filled 0 times.
My int is 0x401dbf
My int is 0x401dbf
My int is 0x401dbf
My int is 0x401dbf
My int is 0x401dbf
My int is 0x401dbf
My int is 0x401dbf
My int is 0x401dbf
My int is 0x401dbf
My int is 0x401dbf

Input Size: 76210
Cache size: 10
Hit Count: 76209
Cache filled 0 times.
My int is 0x401dbf
My int is 0x401dbf
My int is 0x401dbf
My int is 0x401dbf
My int is 0x401dbf
My int is 0x401dbf
My int is 0x401dbf
My int is 0x401dbf
My int is 0x401dbf
My int is 0x401dbf

Input Size: 76220
Cache size: 10
Hit Count: 76219
Cache filled 0 times.
My int is 0x401dbf
My int is 0x401dbf
My int is 0x401dbf
My int is 0x401dbf
My int is 0x401dbf
My int is 0x401dbf
My int is 0x401dbf
My int is 0x401dbf
My int is 0x401dbf
My int is 0x401dbf

Input Size: 76230
Cache size: 10
Hit Count: 76229
Cache filled 0 times.
My int is 0x401dbf
My int is 0x401dbf
My int is 0x401dbf
My int is 0x401dbf
My int is 0x401dbf
My int is 0x401dbf
My int is 0x401dbf
My int is 0x401dbf
My int is 0x401dbf
My int is 0x401dbf

Input Size: 76240
Cache size: 10
Hit Count: 76239
Cache filled 0 times.
My int is 0x401dbf
My int is 0x401dbf
My int is 0x401dbf
My int is 0x401dbf
My int is 0x401dbf
My int is 0x401dbf
My int is 0x401dbf
My int is 0x401dbf
My int is 0x401dbf
My int is 0x401dbf

Input Size: 76250
Cache size: 10
Hit Count: 76249
Cache filled 0 times.
My int is 0x401dbf
My int is 0x401dbf
My int is 0x401dbf
My int is 0x401dbf
My int is 0x401dbf
My int is 0x401dbf
My int is 0x401dbf
My int is 0x401dbf
My int is 0x401dbf
My int is 0x401dbf

Input Size: 76260
Cache size: 10
Hit Count: 76259
Cache filled 0 times.
My int is 0x401dbf
My int is 0x401dbf
My int is 0x401dbf
My int is 0x401dbf
My int is 0x401dbf
My int is 0x401dbf
My int is 0x401dbf
My int is 0x401dbf
My int is 0x401dbf
My int is 0x401dbf

Input Size: 76270
Cache size: 10
Hit Count: 76269
Cache filled 0 times.
My int is 0x401dbf
My int is 0x401dbf
My int is 0x401dbf
My int is 0x401dbf
My int is 0x401dbf
My int is 0x401dbf
My int is 0x401dbf
My int is 0x401dbf
My int is 0x401dbf
My int is 0x401dbf

Input Size: 76280
Cache size: 10
Hit Count: 76279
Cache filled 0 times.
My int is 0x401dbf
My int is 0x401dbf
My int is 0x401dbf
My int is 0x401dbf
My int is 0x401dbf
My int is 0x401dbf
My int is 0x401dbf
My int is 0x401dbf
My int is 0x401dbf
My int is 0x401dbf

Input Size: 76290
Cache size: 10
Hit Count: 76289
Cache filled 0 times.
My int is 0x401dbf
My int is 0x401dbf
My int is 0x401dbf
My int is 0x401dbf
My int is 0x401dbf
My int is 0x401dbf
My int is 0x401dbf
My int is 0x401dbf
My int is 0x401dbf
My int is 0x401dbf

Input Size: 76300
Cache size: 10
Hit Count: 76299
Cache filled 0 times.
My int is 0x401dbf
My int is 0x401dbf
My int is 0x401dbf
My int is 0x401dbf
My int is 0x401dbf
My int is 0x401dbf
My int is 0x401dbf
My int is 0x401dbf
My int is 0x401dbf
My int is 0x401dbf

Input Size: 76310
Cache size: 10
Hit Count: 76309
Cache filled 0 times.
My int is 0x401dbf
My int is 0x401dbf
My int is 0x401dbf
My int is 0x401dbf
My int is 0x401dbf
My int is 0x401dbf
My int is 0x401dbf
My int is 0x401dbf
My int is 0x401dbf
My int is 0x401dbf

Input Size: 76320
Cache size: 10
Hit Count: 76319
Cache filled 0 times.
My int is 0x401dbf
My int is 0x401dbf
My int is 0x401dbf
My int is 0x401dbf
My int is 0x401dbf
My int is 0x401dbf
My int is 0x401dbf
My int is 0x401dbf
My int is 0x401dbf
My int is 0x401dbf

Input Size: 76330
Cache size: 10
Hit Count: 76329
Cache filled 0 times.
My int is 0x401dbf
My int is 0x401dbf
My int is 0x401dbf
My int is 0x401dbf
My int is 0x401dbf
My int is 0x401dbf
My int is 0x401dbf
My int is 0x401dbf
My int is 0x401dbf
My int is 0x401dbf

Input Size: 76340
Cache size: 10
Hit Count: 76339
Cache filled 0 times.
My int is 0x401dbf
My int is 0x401dbf
My int is 0x401dbf
My int is 0x401dbf
My int is 0x401dbf
My int is 0x401dbf
My int is 0x401dbf
My int is 0x401dbf
My int is 0x401dbf
My int is 0x401dbf

Input Size: 76350
Cache size: 10
Hit Count: 76349
Cache filled 0 times.
My int is 0x401dbf
My int is 0x401dbf
My int is 0x401dbf
My int is 0x401dbf
My int is 0x401dbf
My int is 0x401dbf
My int is 0x401dbf
My int is 0x401dbf
My int is 0x401dbf
My int is 0x401dbf

Input Size: 76360
Cache size: 10
Hit Count: 76359
Cache filled 0 times.
My int is 0x401dbf
My int is 0x401dbf
My int is 0x401dbf
My int is 0x401dbf
My int is 0x401dbf
My int is 0x401dbf
My int is 0x401dbf
My int is 0x401dbf
My int is 0x401dbf
My int is 0x401dbf

Input Size: 76370
Cache size: 10
Hit Count: 76369
Cache filled 0 times.
My int is 0x401dbf
My int is 0x401dbf
My int is 0x401dbf
My int is 0x401dbf
My int is 0x401dbf
My int is 0x401dbf
My int is 0x401dbf
My int is 0x401dbf
My int is 0x401dbf
My int is 0x401dbf

Input Size: 76380
Cache size: 10
Hit Count: 76379
Cache filled 0 times.
My int is 0x401dbf
My int is 0x401dbf
My int is 0x401dbf
My int is 0x401dbf
My int is 0x401dbf
My int is 0x401dbf
My int is 0x401dbf
My int is 0x401dbf
My int is 0x401dbf
My int is 0x401dbf

Input Size: 76390
Cache size: 10
Hit Count: 76389
Cache filled 0 times.
My int is 0x401dbf
My int is 0x401dbf
My int is 0x401dbf
My int is 0x401dbf
My int is 0x401dbf
My int is 0x401dbf
My int is 0x401dbf
My int is 0x401dbf
My int is 0x401dbf
My int is 0x401dbf

Input Size: 76400
Cache size: 10
Hit Count: 76399
Cache filled 0 times.
My int is 0x401dbf
My int is 0x401dbf
My int is 0x401dbf
My int is 0x401dbf
My int is 0x401dbf
My int is 0x401dbf
My int is 0x401dbf
My int is 0x401dbf
My int is 0x401dbf
My int is 0x401dbf

Input Size: 76410
Cache size: 10
Hit Count: 76409
Cache filled 0 times.
My int is 0x401dbf
My int is 0x401dbf
My int is 0x401dbf
My int is 0x401dbf
My int is 0x401dbf
My int is 0x401dbf
My int is 0x401dbf
My int is 0x401dbf
My int is 0x401dbf
My int is 0x401dbf

Input Size: 76420
Cache size: 10
Hit Count: 76419
Cache filled 0 times.
My int is 0x401dbf
My int is 0x401dbf
My int is 0x401dbf
My int is 0x401dbf
My int is 0x401dbf
My int is 0x401dbf
My int is 0x401dbf
My int is 0x401dbf
My int is 0x401dbf
My int is 0x401dbf

Input Size: 76430
Cache size: 10
Hit Count: 76429
Cache filled 0 times.
My int is 0x401dbf
My int is 0x401dbf
My int is 0x401dbf
My int is 0x401dbf
My int is 0x401dbf
My int is 0x401dbf
My int is 0x401dbf
My int is 0x401dbf
My int is 0x401dbf
My int is 0x401dbf

Input Size: 76440
Cache size: 10
Hit Count: 76439
Cache filled 0 times.
My int is 0x401dbf
My int is 0x401dbf
My int is 0x401dbf
My int is 0x401dbf
My int is 0x401dbf
My int is 0x401dbf
My int is 0x401dbf
My int is 0x401dbf
My int is 0x401dbf
My int is 0x401dbf

Input Size: 76450
Cache size: 10
Hit Count: 76449
Cache filled 0 times.
My int is 0x401dbf
My int is 0x401dbf
My int is 0x401dbf
My int is 0x401dbf
My int is 0x401dbf
My int is 0x401dbf
My int is 0x401dbf
My int is 0x401dbf
My int is 0x401dbf
My int is 0x401dbf

Input Size: 76460
Cache size: 10
Hit Count: 76459
Cache filled 0 times.
My int is 0x401dbf
My int is 0x401dbf
My int is 0x401dbf
My int is 0x401dbf
My int is 0x401dbf
My int is 0x401dbf
My int is 0x401dbf
My int is 0x401dbf
My int is 0x401dbf
My int is 0x401dbf

Input Size: 76470
Cache size: 10
Hit Count: 76469
Cache filled 0 times.
My int is 0x401dbf
My int is 0x401dbf
My int is 0x401dbf
My int is 0x401dbf
My int is 0x401dbf
My int is 0x401dbf
My int is 0x401dbf
My int is 0x401dbf
My int is 0x401dbf
My int is 0x401dbf

Input Size: 76480
Cache size: 10
Hit Count: 76479
Cache filled 0 times.
My int is 0x401dbf
My int is 0x401dbf
My int is 0x401dbf
My int is 0x401dbf
My int is 0x401dbf
My int is 0x401dbf
My int is 0x401dbf
My int is 0x401dbf
My int is 0x401dbf
My int is 0x401dbf

Input Size: 76490
Cache size: 10
Hit Count: 76489
Cache filled 0 times.
My int is 0x401dbf
My int is 0x401dbf
My int is 0x401dbf
My int is 0x401dbf
My int is 0x401dbf
My int is 0x401dbf
My int is 0x401dbf
My int is 0x401dbf
My int is 0x401dbf
My int is 0x401dbf

Input Size: 76500
Cache size: 10
Hit Count: 76499
Cache filled 0 times.
My int is 0x401dbf
My int is 0x401dbf
My int is 0x401dbf
My int is 0x401dbf
My int is 0x401dbf
My int is 0x401dbf
My int is 0x401dbf
My int is 0x401dbf
My int is 0x401dbf
My int is 0x401dbf

Input Size: 76510
Cache size: 10
Hit Count: 76509
Cache filled 0 times.
My int is 0x401dbf
My int is 0x401dbf
My int is 0x401dbf
My int is 0x401dbf
My int is 0x401dbf
My int is 0x401dbf
My int is 0x401dbf
My int is 0x401dbf
My int is 0x401dbf
My int is 0x401dbf

Input Size: 76520
Cache size: 10
Hit Count: 76519
Cache filled 0 times.
My int is 0x401dbf
My int is 0x401dbf
My int is 0x401dbf
My int is 0x401dbf
My int is 0x401dbf
My int is 0x401dbf
My int is 0x401dbf
My int is 0x401dbf
My int is 0x401dbf
My int is 0x401dbf

Input Size: 76530
Cache size: 10
Hit Count: 76529
Cache filled 0 times.
My int is 0x401dbf
My int is 0x401dbf
My int is 0x401dbf
Caught signal: 2
