
*** ChampSim Multicore Out-of-Order Simulator ***

Warmup Instructions: 1000000
Simulation Instructions: 1000000
Number of CPUs: 1
LLC sets: 2048
LLC ways: 16
Off-chip DRAM Size: 4096 MB Channels: 1 Width: 64-bit Data Rate: 3200 MT/s

CPU 0 runs /nfs-scratch/usk6037/ChampSim/traces/lbm_94B.trace.xz
0
CPU 0 Bimodal branch predictor
onetwowhy not??My Fetch_size is 0xc
My int is 0x401dbf

Input Size: 0
Cache size: 10
Hit Count: 0
Cache filled 0 times.
My int is 0x401dbf
My int is 0x401dc5
My int is 0x401dc9
My int is 0x401dd1
My int is 0x401dd6
My int is 0x0
My int is 0x0
My int is 0x0
My int is 0x0
My int is 0x0

Input Size: 10
Cache size: 10
Hit Count: 4
Cache filled 0 times.
My int is 0x0
My Fetch_size is 0xc
My int is 0x401dbf
My int is 0x401dbf
My int is 0x401dc5
My int is 0x401dc9
My int is 0x401dd1
My int is 0x401dd6
My int is 0x401dda
My int is 0x401dde
My int is 0x401de4

Input Size: 20
Cache size: 10
Hit Count: 12
Cache filled 0 times.
My int is 0x401de8
My int is 0x401df0
My int is 0x401df5
My Fetch_size is 0xc
My int is 0x401dbf
My int is 0x401dbf
My int is 0x401dc5
My int is 0x401dc9
My int is 0x401dd1
My int is 0x401dd6
My int is 0x401dda

Input Size: 30
Cache size: 10
Hit Count: 18
Cache filled 0 times.
My int is 0x401dde
My int is 0x401de4
My int is 0x401de8
My int is 0x401df0
My int is 0x401df5
My Fetch_size is 0xc
My int is 0x401dbf
My int is 0x401dbf
My int is 0x401dc5
My int is 0x401dc9
My int is 0x401dd1

Input Size: 40
Cache size: 10
Hit Count: 27
Cache filled 1 times.
My int is 0x401dd6
My int is 0x401dda
My int is 0x401dde
My int is 0x401de4
My int is 0x401de8
My int is 0x401df0
My int is 0x401df5
My Fetch_size is 0xc
My int is 0x401dbf
My int is 0x401dbf
My int is 0x401dc5

Input Size: 50
Cache size: 10
Hit Count: 36
Cache filled 2 times.
My int is 0x401dc9
My int is 0x401dd1
My int is 0x401dd6
My int is 0x401dda
My int is 0x401dde
My int is 0x401de4
My int is 0x401de8
My int is 0x401df0
My int is 0x401df5
My Fetch_size is 0xc
My int is 0x401dbf

Input Size: 60
Cache size: 10
Hit Count: 45
Cache filled 3 times.
My int is 0x401dbf
My int is 0x401dc5
My int is 0x401dc9
My int is 0x401dd1
My int is 0x401dd6
My int is 0x401dda
My int is 0x401dde
My int is 0x401de4
My int is 0x401de8
My int is 0x401df0

Input Size: 70
Cache size: 10
Hit Count: 55
Cache filled 3 times.
My int is 0x401df5
My Fetch_size is 0xc
My int is 0x401dbf
My int is 0x401dbf
My int is 0x401dc5
My int is 0x401dc9
My int is 0x401dd1
My int is 0x401dd6
My int is 0x401dda
My int is 0x401dde
My int is 0x401de4

Input Size: 80
Cache size: 10
Hit Count: 64
Cache filled 4 times.
My int is 0x401de8
My int is 0x401df0
My int is 0x401df5
My Fetch_size is 0xc
My int is 0x401dbf
My int is 0x401dbf
My int is 0x401dc5
My int is 0x401dc9
My int is 0x401dd1
My int is 0x401dd6
My int is 0x401dda

Input Size: 90
Cache size: 10
Hit Count: 73
Cache filled 5 times.
My int is 0x401dde
My int is 0x401de4
My int is 0x401de8
My int is 0x401df0
My int is 0x401df5
My Fetch_size is 0xc
My int is 0x401dbf
My int is 0x401dbf
My int is 0x401dc5
My int is 0x401dc9
My int is 0x401dd1

Input Size: 100
Cache size: 10
Hit Count: 82
Cache filled 6 times.
My int is 0x401dd6
My int is 0x401dda
My int is 0x401dde
My int is 0x401de4
My int is 0x401de8
My int is 0x401df0
My int is 0x401df5
My Fetch_size is 0xc
My int is 0x401dbf
My int is 0x401dbf
My int is 0x401dc5

Input Size: 110
Cache size: 10
Hit Count: 91
Cache filled 7 times.
My int is 0x401dc9
My int is 0x401dd1
My int is 0x401dd6
My int is 0x401dda
My int is 0x401dde
My int is 0x401de4
My int is 0x401de8
My int is 0x401df0
My int is 0x401df5
My Fetch_size is 0xc
My int is 0x401dbf

Input Size: 120
Cache size: 10
Hit Count: 100
Cache filled 8 times.
My int is 0x401dbf
My int is 0x401dc5
My int is 0x401dc9
My int is 0x401dd1
My int is 0x401dd6
My int is 0x401dda
My int is 0x401dde
My int is 0x401de4
My int is 0x401de8
My int is 0x401df0

Input Size: 130
Cache size: 10
Hit Count: 110
Cache filled 8 times.
119
My int is 0x401df5
My Fetch_size is 0xc
My int is 0x401dbf
My int is 0x401dbf
My int is 0x401dc5
My int is 0x401dc9
My int is 0x401dd1
My int is 0x401dd6
My int is 0x401dda
My int is 0x401dde
My int is 0x401de4

Input Size: 140
Cache size: 10
Hit Count: 119
Cache filled 9 times.
My int is 0x401de8
My int is 0x401df0
My int is 0x401df5
My Fetch_size is 0xc
My int is 0x401dbf
My int is 0x401dbf
My int is 0x401dc5
My int is 0x401dc9
My int is 0x401dd1
My int is 0x401dd6
My int is 0x401dda

Input Size: 150
Cache size: 10
Hit Count: 128
Cache filled 10 times.
My int is 0x401dde
My int is 0x401de4
My int is 0x401de8
My int is 0x401df0
My int is 0x401df5
My Fetch_size is 0xc
My int is 0x401dbf
My int is 0x401dbf
My int is 0x401dc5
My int is 0x401dc9
My int is 0x401dd1

Input Size: 160
Cache size: 10
Hit Count: 137
Cache filled 11 times.
My int is 0x401dd6
My int is 0x401dda
My int is 0x401dde
My int is 0x401de4
My int is 0x401de8
My int is 0x401df0
My int is 0x401df5
My Fetch_size is 0xc
My int is 0x401dbf
My int is 0x401dbf
My int is 0x401dc5

Input Size: 170
Cache size: 10
Hit Count: 146
Cache filled 12 times.
My int is 0x401dc9
My int is 0x401dd1
My int is 0x401dd6
My int is 0x401dda
My int is 0x401dde
My int is 0x401de4
My int is 0x401de8
My int is 0x401df0
My int is 0x401df5
My Fetch_size is 0xc
My int is 0x401dbf

Input Size: 180
Cache size: 10
Hit Count: 155
Cache filled 13 times.
My int is 0x401dbf
My int is 0x401dc5
My int is 0x401dc9
My int is 0x401dd1
My int is 0x401dd6
My int is 0x401dda
My int is 0x401dde
My int is 0x401de4
My int is 0x401de8
My int is 0x401df0

Input Size: 190
Cache size: 10
Hit Count: 165
Cache filled 13 times.
My int is 0x401df5
My Fetch_size is 0xc
My int is 0x401dbf
My int is 0x401dbf
My int is 0x401dc5
My int is 0x401dc9
My int is 0x401dd1
My int is 0x401dd6
My int is 0x401dda
My int is 0x401dde
My int is 0x401de4

Input Size: 200
Cache size: 10
Hit Count: 174
Cache filled 14 times.
My int is 0x401de8
My int is 0x401df0
My int is 0x401df5
My Fetch_size is 0xc
My int is 0x401dbf
My int is 0x401dbf
My int is 0x401dc5
My int is 0x401dc9
My int is 0x401dd1
My int is 0x401dd6
My int is 0x401dda

Input Size: 210
Cache size: 10
Hit Count: 183
Cache filled 15 times.
My int is 0x401dde
My int is 0x401de4
My int is 0x401de8
My int is 0x401df0
My int is 0x401df5
My Fetch_size is 0xc
My int is 0x401dbf
My int is 0x401dbf
My int is 0x401dc5
My int is 0x401dc9
My int is 0x401dd1

Input Size: 220
Cache size: 10
Hit Count: 192
Cache filled 16 times.
My int is 0x401dd6
My int is 0x401dda
My int is 0x401dde
My int is 0x401de4
My int is 0x401de8
My int is 0x401df0
My int is 0x401df5
My Fetch_size is 0xc
My int is 0x401dbf
My int is 0x401dbf
My int is 0x401dc5

Input Size: 230
Cache size: 10
Hit Count: 201
Cache filled 17 times.
My int is 0x401dc9
My int is 0x401dd1
My int is 0x401dd6
My int is 0x401dda
My int is 0x401dde
My int is 0x401de4
My int is 0x401de8
My int is 0x401df0
My int is 0x401df5
My Fetch_size is 0xc
My int is 0x401dbf

Input Size: 240
Cache size: 10
Hit Count: 210
Cache filled 18 times.
My int is 0x401dbf
My int is 0x401dc5
My int is 0x401dc9
My int is 0x401dd1
My int is 0x401dd6
My int is 0x401dda
My int is 0x401dde
My int is 0x401de4
My int is 0x401de8
My int is 0x401df0

Input Size: 250
Cache size: 10
Hit Count: 220
Cache filled 18 times.
My int is 0x401df5
My Fetch_size is 0xc
My int is 0x401dbf
My int is 0x401dbf
My int is 0x401dc5
My int is 0x401dc9
My int is 0x401dd1
My int is 0x401dd6
My int is 0x401dda
My int is 0x401dde
My int is 0x401de4

Input Size: 260
Cache size: 10
Hit Count: 229
Cache filled 19 times.
My int is 0x401de8
My int is 0x401df0
My int is 0x401df5
My Fetch_size is 0xc
My int is 0x401dbf
My int is 0x401dbf
My int is 0x401dc5
My int is 0x401dc9
My int is 0x401dd1
My int is 0x401dd6
My int is 0x401dda

Input Size: 270
Cache size: 10
Hit Count: 238
Cache filled 20 times.
My int is 0x401dde
My int is 0x401de4
My int is 0x401de8
My int is 0x401df0
My int is 0x401df5
My Fetch_size is 0xc
My int is 0x401dbf
My int is 0x401dbf
My int is 0x401dc5
My int is 0x401dc9
My int is 0x401dd1

Input Size: 280
Cache size: 10
Hit Count: 247
Cache filled 21 times.
My int is 0x401dd6
My int is 0x401dda
My int is 0x401dde
My int is 0x401de4
My int is 0x401de8
My int is 0x401df0
My int is 0x401df5
My Fetch_size is 0xc
My int is 0x401dbf
My int is 0x401dbf
My int is 0x401dc5

Input Size: 290
Cache size: 10
Hit Count: 256
Cache filled 22 times.
My int is 0x401dc9
My int is 0x401dd1
My int is 0x401dd6
My int is 0x401dda
My int is 0x401dde
My int is 0x401de4
My int is 0x401de8
My int is 0x401df0
My int is 0x401df5
My Fetch_size is 0xc
My int is 0x401dbf

Input Size: 300
Cache size: 10
Hit Count: 265
Cache filled 23 times.
My int is 0x401dbf
My int is 0x401dc5
My int is 0x401dc9
My int is 0x401dd1
My int is 0x401dd6
My int is 0x401dda
My int is 0x401dde
My int is 0x401de4
My int is 0x401de8
My int is 0x401df0

Input Size: 310
Cache size: 10
Hit Count: 275
Cache filled 23 times.
My int is 0x401df5
My Fetch_size is 0xc
My int is 0x401dbf
My int is 0x401dbf
My int is 0x401dc5
My int is 0x401dc9
My int is 0x401dd1
My int is 0x401dd6
My int is 0x401dda
My int is 0x401dde
My int is 0x401de4

Input Size: 320
Cache size: 10
Hit Count: 284
Cache filled 24 times.
My int is 0x401de8
My int is 0x401df0
My int is 0x401df5
My Fetch_size is 0xc
My int is 0x401dbf
My int is 0x401dbf
My int is 0x401dc5
My int is 0x401dc9
My int is 0x401dd1
My int is 0x401dd6
My int is 0x401dda

Input Size: 330
Cache size: 10
Hit Count: 293
Cache filled 25 times.
My int is 0x401dde
My int is 0x401de4
My int is 0x401de8
My int is 0x401df0
My int is 0x401df5
My Fetch_size is 0xc
My int is 0x401dbf
My int is 0x401dbf
My int is 0x401dc5
My int is 0x401dc9
My int is 0x401dd1

Input Size: 340
Cache size: 10
Hit Count: 302
Cache filled 26 times.
My int is 0x401dd6
My int is 0x401dda
My int is 0x401dde
My int is 0x401de4
My int is 0x401de8
My int is 0x401df0
My int is 0x401df5
My Fetch_size is 0xc
My int is 0x401dbf
My int is 0x401dbf
My int is 0x401dc5

Input Size: 350
Cache size: 10
Hit Count: 311
Cache filled 27 times.
My int is 0x401dc9
My int is 0x401dd1
My int is 0x401dd6
My int is 0x401dda
My int is 0x401dde
My int is 0x401de4
My int is 0x401de8
My int is 0x401df0
My int is 0x401df5
My Fetch_size is 0xc
My int is 0x401dbf

Input Size: 360
Cache size: 10
Hit Count: 320
Cache filled 28 times.
My int is 0x401dbf
My int is 0x401dc5
My int is 0x401dc9
My int is 0x401dd1
My int is 0x401dd6
My int is 0x401dda
My int is 0x401dde
My int is 0x401de4
My int is 0x401de8
My int is 0x401df0

Input Size: 370
Cache size: 10
Hit Count: 330
Cache filled 28 times.
My int is 0x401df5
My Fetch_size is 0xc
My int is 0x401dbf
My int is 0x401dbf
My int is 0x401dc5
My int is 0x401dc9
My int is 0x401dd1
My int is 0x401dd6
My int is 0x401dda
My int is 0x401dde
My int is 0x401de4

Input Size: 380
Cache size: 10
Hit Count: 339
Cache filled 29 times.
My int is 0x401de8
My int is 0x401df0
My int is 0x401df5
My Fetch_size is 0xc
My int is 0x401dbf
My int is 0x401dbf
My int is 0x401dc5
My int is 0x401dc9
My int is 0x401dd1
My int is 0x401dd6
My int is 0x401dda

Input Size: 390
Cache size: 10
Hit Count: 348
Cache filled 30 times.
My int is 0x401dde
My int is 0x401de4
My int is 0x401de8
My int is 0x401df0
My int is 0x401df5
My Fetch_size is 0xc
My int is 0x401dbf
My int is 0x401dbf
My int is 0x401dc5
My int is 0x401dc9
My int is 0x401dd1

Input Size: 400
Cache size: 10
Hit Count: 357
Cache filled 31 times.
My int is 0x401dd6
My int is 0x401dda
My int is 0x401dde
My int is 0x401de4
My int is 0x401de8
My int is 0x401df0
My int is 0x401df5
My Fetch_size is 0xc
My int is 0x401dbf
My int is 0x401dbf
My int is 0x401dc5

Input Size: 410
Cache size: 10
Hit Count: 366
Cache filled 32 times.
My int is 0x401dc9
My int is 0x401dd1
My int is 0x401dd6
My int is 0x401dda
My int is 0x401dde
My int is 0x401de4
My int is 0x401de8
My int is 0x401df0
My int is 0x401df5
My Fetch_size is 0xc
My int is 0x401dbf

Input Size: 420
Cache size: 10
Hit Count: 375
Cache filled 33 times.
My int is 0x401dbf
My int is 0x401dc5
My int is 0x401dc9
My int is 0x401dd1
My int is 0x401dd6
My int is 0x401dda
My int is 0x401dde
My int is 0x401de4
My int is 0x401de8
My int is 0x401df0

Input Size: 430
Cache size: 10
Hit Count: 385
Cache filled 33 times.
My int is 0x401df5
My Fetch_size is 0xc
My int is 0x401dbf
My int is 0x401dbf
My int is 0x401dc5
My int is 0x401dc9
My int is 0x401dd1
My int is 0x401dd6
My int is 0x401dda
My int is 0x401dde
My int is 0x401de4

Input Size: 440
Cache size: 10
Hit Count: 394
Cache filled 34 times.
My int is 0x401de8
My int is 0x401df0
My int is 0x401df5
My Fetch_size is 0xc
My int is 0x401dbf
My int is 0x401dbf
My int is 0x401dc5
My int is 0x401dc9
My int is 0x401dd1
My int is 0x401dd6
My int is 0x401dda

Input Size: 450
Cache size: 10
Hit Count: 403
Cache filled 35 times.
My int is 0x401dde
My int is 0x401de4
My int is 0x401de8
My int is 0x401df0
My int is 0x401df5
My Fetch_size is 0xc
My int is 0x401dbf
My int is 0x401dbf
My int is 0x401dc5
My int is 0x401dc9
My int is 0x401dd1

Input Size: 460
Cache size: 10
Hit Count: 412
Cache filled 36 times.
My int is 0x401dd6
My int is 0x401dda
My int is 0x401dde
My int is 0x401de4
My int is 0x401de8
My int is 0x401df0
My int is 0x401df5
My Fetch_size is 0xc
My int is 0x401dbf
My int is 0x401dbf
My int is 0x401dc5

Input Size: 470
Cache size: 10
Hit Count: 421
Cache filled 37 times.
My int is 0x401dc9
My int is 0x401dd1
My int is 0x401dd6
My int is 0x401dda
My int is 0x401dde
My int is 0x401de4
My int is 0x401de8
My int is 0x401df0
My int is 0x401df5
My Fetch_size is 0xc
My int is 0x401dbf

Input Size: 480
Cache size: 10
Hit Count: 430
Cache filled 38 times.
My int is 0x401dbf
My int is 0x401dc5
My int is 0x401dc9
My int is 0x401dd1
My int is 0x401dd6
My int is 0x401dda
My int is 0x401dde
My int is 0x401de4
My int is 0x401de8
My int is 0x401df0

Input Size: 490
Cache size: 10
Hit Count: 440
Cache filled 38 times.
My int is 0x401df5
My Fetch_size is 0xc
My int is 0x401dbf
My int is 0x401dbf
My int is 0x401dc5
My int is 0x401dc9
My int is 0x401dd1
My int is 0x401dd6
My int is 0x401dda
My int is 0x401dde
My int is 0x401de4

Input Size: 500
Cache size: 10
Hit Count: 449
Cache filled 39 times.
My int is 0x401de8
My int is 0x401df0
My int is 0x401df5
My Fetch_size is 0xc
My int is 0x401dbf
My int is 0x401dbf
My int is 0x401dc5
My int is 0x401dc9
My int is 0x401dd1
My int is 0x401dd6
My int is 0x401dda

Input Size: 510
Cache size: 10
Hit Count: 458
Cache filled 40 times.
My int is 0x401dde
My int is 0x401de4
My int is 0x401de8
My int is 0x401df0
My int is 0x401df5
My Fetch_size is 0xc
My int is 0x401dbf
My int is 0x401dbf
My int is 0x401dc5
My int is 0x401dc9
My int is 0x401dd1

Input Size: 520
Cache size: 10
Hit Count: 467
Cache filled 41 times.
My int is 0x401dd6
My int is 0x401dda
My int is 0x401dde
My int is 0x401de4
My int is 0x401de8
My int is 0x401df0
My int is 0x401df5
My Fetch_size is 0xc
My int is 0x401dbf
My int is 0x401dbf
My int is 0x401dc5

Input Size: 530
Cache size: 10
Hit Count: 476
Cache filled 42 times.
My int is 0x401dc9
My int is 0x401dd1
My int is 0x401dd6
My int is 0x401dda
My int is 0x401dde
My int is 0x401de4
My int is 0x401de8
My int is 0x401df0
My int is 0x401df5
My Fetch_size is 0xc
My int is 0x401dbf

Input Size: 540
Cache size: 10
Hit Count: 485
Cache filled 43 times.
My int is 0x401dbf
My int is 0x401dc5
My int is 0x401dc9
My int is 0x401dd1
My int is 0x401dd6
My int is 0x401dda
My int is 0x401dde
My int is 0x401de4
My int is 0x401de8
My int is 0x401df0

Input Size: 550
Cache size: 10
Hit Count: 495
Cache filled 43 times.
My int is 0x401df5
My Fetch_size is 0xc
My int is 0x401dbf
My int is 0x401dbf
My int is 0x401dc5
My int is 0x401dc9
My int is 0x401dd1
My int is 0x401dd6
My int is 0x401dda
My int is 0x401dde
My int is 0x401de4

Input Size: 560
Cache size: 10
Hit Count: 504
Cache filled 44 times.
My int is 0x401de8
My int is 0x401df0
My int is 0x401df5
My Fetch_size is 0xc
My int is 0x401dbf
My int is 0x401dbf
My int is 0x401dc5
My int is 0x401dc9
My int is 0x401dd1
My int is 0x401dd6
My int is 0x401dda

Input Size: 570
Cache size: 10
Hit Count: 513
Cache filled 45 times.
My int is 0x401dde
My int is 0x401de4
My int is 0x401de8
My int is 0x401df0
My int is 0x401df5
My Fetch_size is 0xc
My int is 0x401dbf
My int is 0x401dbf
My int is 0x401dc5
My int is 0x401dc9
My int is 0x401dd1

Input Size: 580
Cache size: 10
Hit Count: 522
Cache filled 46 times.
My int is 0x401dd6
My int is 0x401dda
My int is 0x401dde
My int is 0x401de4
My int is 0x401de8
My int is 0x401df0
My int is 0x401df5
My Fetch_size is 0xc
My int is 0x401dbf
My int is 0x401dbf
My int is 0x401dc5

Input Size: 590
Cache size: 10
Hit Count: 531
Cache filled 47 times.
My int is 0x401dc9
My int is 0x401dd1
My int is 0x401dd6
My int is 0x401dda
My int is 0x401dde
My int is 0x401de4
My int is 0x401de8
My int is 0x401df0
My int is 0x401df5
My Fetch_size is 0xc
My int is 0x401dbf

Input Size: 600
Cache size: 10
Hit Count: 540
Cache filled 48 times.
My int is 0x401dbf
My int is 0x401dc5
My int is 0x401dc9
My int is 0x401dd1
My int is 0x401dd6
My int is 0x401dda
My int is 0x401dde
My int is 0x401de4
My int is 0x401de8
My int is 0x401df0

Input Size: 610
Cache size: 10
Hit Count: 550
Cache filled 48 times.
My int is 0x401df5
My Fetch_size is 0xc
My int is 0x401dbf
My int is 0x401dbf
My int is 0x401dc5
My int is 0x401dc9
My int is 0x401dd1
My int is 0x401dd6
My int is 0x401dda
My int is 0x401dde
My int is 0x401de4

Input Size: 620
Cache size: 10
Hit Count: 559
Cache filled 49 times.
My int is 0x401de8
My int is 0x401df0
My int is 0x401df5
My Fetch_size is 0xc
My int is 0x401dbf
My int is 0x401dbf
My int is 0x401dc5
My int is 0x401dc9
My int is 0x401dd1
My int is 0x401dd6
My int is 0x401dda

Input Size: 630
Cache size: 10
Hit Count: 568
Cache filled 50 times.
My int is 0x401dde
My int is 0x401de4
My int is 0x401de8
My int is 0x401df0
My int is 0x401df5
My Fetch_size is 0xc
My int is 0x401dbf
My int is 0x401dbf
My int is 0x401dc5
My int is 0x401dc9
My int is 0x401dd1

Input Size: 640
Cache size: 10
Hit Count: 577
Cache filled 51 times.
My int is 0x401dd6
My int is 0x401dda
My int is 0x401dde
My int is 0x401de4
My int is 0x401de8
My int is 0x401df0
My int is 0x401df5
My Fetch_size is 0xc
My int is 0x401dbf
My int is 0x401dbf
My int is 0x401dc5

Input Size: 650
Cache size: 10
Hit Count: 586
Cache filled 52 times.
My int is 0x401dc9
My int is 0x401dd1
My int is 0x401dd6
My int is 0x401dda
My int is 0x401dde
My int is 0x401de4
My int is 0x401de8
My int is 0x401df0
My int is 0x401df5
My Fetch_size is 0xc
My int is 0x401dbf

Input Size: 660
Cache size: 10
Hit Count: 595
Cache filled 53 times.
My int is 0x401dbf
My int is 0x401dc5
My int is 0x401dc9
My int is 0x401dd1
My int is 0x401dd6
My int is 0x401dda
My int is 0x401dde
My int is 0x401de4
My int is 0x401de8
My int is 0x401df0

Input Size: 670
Cache size: 10
Hit Count: 605
Cache filled 53 times.
My int is 0x401df5
My Fetch_size is 0xc
My int is 0x401dbf
My int is 0x401dbf
My int is 0x401dc5
My int is 0x401dc9
My int is 0x401dd1
My int is 0x401dd6
My int is 0x401dda
My int is 0x401dde
My int is 0x401de4

Input Size: 680
Cache size: 10
Hit Count: 614
Cache filled 54 times.
My int is 0x401de8
My int is 0x401df0
My int is 0x401df5
My Fetch_size is 0xc
My int is 0x401dbf
My int is 0x401dbf
My int is 0x401dc5
My int is 0x401dc9
My int is 0x401dd1
My int is 0x401dd6
My int is 0x401dda

Input Size: 690
Cache size: 10
Hit Count: 623
Cache filled 55 times.
My int is 0x401dde
My int is 0x401de4
My int is 0x401de8
My int is 0x401df0
My int is 0x401df5
My Fetch_size is 0xc
My int is 0x401dbf
My int is 0x401dbf
My int is 0x401dc5
My int is 0x401dc9
My int is 0x401dd1

Input Size: 700
Cache size: 10
Hit Count: 632
Cache filled 56 times.
My int is 0x401dd6
My int is 0x401dda
My int is 0x401dde
My int is 0x401de4
My int is 0x401de8
My int is 0x401df0
My int is 0x401df5
My Fetch_size is 0xc
My int is 0x401dbf
My int is 0x401dbf
My int is 0x401dc5

Input Size: 710
Cache size: 10
Hit Count: 641
Cache filled 57 times.
My int is 0x401dc9
My int is 0x401dd1
My int is 0x401dd6
My int is 0x401dda
My int is 0x401dde
My int is 0x401de4
My int is 0x401de8
My int is 0x401df0
My int is 0x401df5
My Fetch_size is 0xc
My int is 0x401dbf

Input Size: 720
Cache size: 10
Hit Count: 650
Cache filled 58 times.
My int is 0x401dbf
My int is 0x401dc5
My int is 0x401dc9
My int is 0x401dd1
My int is 0x401dd6
My int is 0x401dda
My int is 0x401dde
My int is 0x401de4
My int is 0x401de8
My int is 0x401df0

Input Size: 730
Cache size: 10
Hit Count: 660
Cache filled 58 times.
My int is 0x401df5
My Fetch_size is 0xc
My int is 0x401dbf
My int is 0x401dbf
My int is 0x401dc5
My int is 0x401dc9
My int is 0x401dd1
My int is 0x401dd6
My int is 0x401dda
My int is 0x401dde
My int is 0x401de4

Input Size: 740
Cache size: 10
Hit Count: 669
Cache filled 59 times.
My int is 0x401de8
My int is 0x401df0
My int is 0x401df5
My Fetch_size is 0xc
My int is 0x401dbf
My int is 0x401dbf
My int is 0x401dc5
My int is 0x401dc9
My int is 0x401dd1
My int is 0x401dd6
My int is 0x401dda

Input Size: 750
Cache size: 10
Hit Count: 678
Cache filled 60 times.
My int is 0x401dde
My int is 0x401de4
My int is 0x401de8
My int is 0x401df0
My int is 0x401df5
My Fetch_size is 0xc
My int is 0x401dbf
My int is 0x401dbf
My int is 0x401dc5
My int is 0x401dc9
My int is 0x401dd1

Input Size: 760
Cache size: 10
Hit Count: 687
Cache filled 61 times.
My int is 0x401dd6
My int is 0x401dda
My int is 0x401dde
My int is 0x401de4
My int is 0x401de8
My int is 0x401df0
My int is 0x401df5
My Fetch_size is 0xc
My int is 0x401dbf
My int is 0x401dbf
My int is 0x401dc5

Input Size: 770
Cache size: 10
Hit Count: 696
Cache filled 62 times.
My int is 0x401dc9
My int is 0x401dd1
My int is 0x401dd6
My int is 0x401dda
My int is 0x401dde
My int is 0x401de4
My int is 0x401de8
My int is 0x401df0
My int is 0x401df5
My Fetch_size is 0xc
My int is 0x401dbf

Input Size: 780
Cache size: 10
Hit Count: 705
Cache filled 63 times.
My int is 0x401dbf
My int is 0x401dc5
My int is 0x401dc9
My int is 0x401dd1
My int is 0x401dd6
My int is 0x401dda
My int is 0x401dde
My int is 0x401de4
My int is 0x401de8
My int is 0x401df0

Input Size: 790
Cache size: 10
Hit Count: 715
Cache filled 63 times.
My int is 0x401df5
My Fetch_size is 0xc
My int is 0x401dbf
My int is 0x401dbf
My int is 0x401dc5
My int is 0x401dc9
My int is 0x401dd1
My int is 0x401dd6
My int is 0x401dda
My int is 0x401dde
My int is 0x401de4

Input Size: 800
Cache size: 10
Hit Count: 724
Cache filled 64 times.
My int is 0x401de8
My int is 0x401df0
My int is 0x401df5
My Fetch_size is 0xc
My int is 0x401dbf
My int is 0x401dbf
My int is 0x401dc5
My int is 0x401dc9
My int is 0x401dd1
My int is 0x401dd6
My int is 0x401dda

Input Size: 810
Cache size: 10
Hit Count: 733
Cache filled 65 times.
My int is 0x401dde
My int is 0x401de4
My int is 0x401de8
My int is 0x401df0
My int is 0x401df5
My Fetch_size is 0xc
My int is 0x401dbf
My int is 0x401dbf
My int is 0x401dc5
My int is 0x401dc9
My int is 0x401dd1

Input Size: 820
Cache size: 10
Hit Count: 742
Cache filled 66 times.
My int is 0x401dd6
My int is 0x401dda
My int is 0x401dde
My int is 0x401de4
My int is 0x401de8
My int is 0x401df0
My int is 0x401df5
My Fetch_size is 0xc
My int is 0x401dbf
My int is 0x401dbf
My int is 0x401dc5

Input Size: 830
Cache size: 10
Hit Count: 751
Cache filled 67 times.
My int is 0x401dc9
My int is 0x401dd1
My int is 0x401dd6
My int is 0x401dda
My int is 0x401dde
My int is 0x401de4
My int is 0x401de8
My int is 0x401df0
My int is 0x401df5
My Fetch_size is 0xc
My int is 0x401dbf

Input Size: 840
Cache size: 10
Hit Count: 760
Cache filled 68 times.
My int is 0x401dbf
My int is 0x401dc5
My int is 0x401dc9
My int is 0x401dd1
My int is 0x401dd6
My int is 0x401dda
My int is 0x401dde
My int is 0x401de4
My int is 0x401de8
My int is 0x401df0

Input Size: 850
Cache size: 10
Hit Count: 770
Cache filled 68 times.
My int is 0x401df5
My Fetch_size is 0xc
My int is 0x401dbf
My int is 0x401dbf
My int is 0x401dc5
My int is 0x401dc9
My int is 0x401dd1
My int is 0x401dd6
My int is 0x401dda
My int is 0x401dde
My int is 0x401de4

Input Size: 860
Cache size: 10
Hit Count: 779
Cache filled 69 times.
My int is 0x401de8
My int is 0x401df0
My int is 0x401df5
My Fetch_size is 0xc
My int is 0x401dbf
My int is 0x401dbf
My int is 0x401dc5
My int is 0x401dc9
My int is 0x401dd1
My int is 0x401dd6
My int is 0x401dda

Input Size: 870
Cache size: 10
Hit Count: 788
Cache filled 70 times.
My int is 0x401dde
My int is 0x401de4
My int is 0x401de8
My int is 0x401df0
My int is 0x401df5
My Fetch_size is 0xc
My int is 0x401dbf
My int is 0x401dbf
My int is 0x401dc5
My int is 0x401dc9
My int is 0x401dd1

Input Size: 880
Cache size: 10
Hit Count: 797
Cache filled 71 times.
My int is 0x401dd6
My int is 0x401dda
My int is 0x401dde
My int is 0x401de4
My int is 0x401de8
My int is 0x401df0
My int is 0x401df5
My Fetch_size is 0xc
My int is 0x401dbf
My int is 0x401dbf
My int is 0x401dc5

Input Size: 890
Cache size: 10
Hit Count: 806
Cache filled 72 times.
My int is 0x401dc9
My int is 0x401dd1
My int is 0x401dd6
My int is 0x401dda
My int is 0x401dde
My int is 0x401de4
My int is 0x401de8
My int is 0x401df0
My int is 0x401df5
My Fetch_size is 0xc
My int is 0x401dbf

Input Size: 900
Cache size: 10
Hit Count: 815
Cache filled 73 times.
My int is 0x401dbf
My int is 0x401dc5
My int is 0x401dc9
My int is 0x401dd1
My int is 0x401dd6
My int is 0x401dda
My int is 0x401dde
My int is 0x401de4
My int is 0x401de8
My int is 0x401df0

Input Size: 910
Cache size: 10
Hit Count: 825
Cache filled 73 times.
My int is 0x401df5
My Fetch_size is 0xc
My int is 0x401dbf
My int is 0x401dbf
My int is 0x401dc5
My int is 0x401dc9
My int is 0x401dd1
My int is 0x401dd6
My int is 0x401dda
My int is 0x401dde
My int is 0x401de4

Input Size: 920
Cache size: 10
Hit Count: 834
Cache filled 74 times.
My int is 0x401de8
My int is 0x401df0
My int is 0x401df5
My Fetch_size is 0xc
My int is 0x401dbf
My int is 0x401dbf
My int is 0x401dc5
My int is 0x401dc9
My int is 0x401dd1
My int is 0x401dd6
My int is 0x401dda

Input Size: 930
Cache size: 10
Hit Count: 843
Cache filled 75 times.
My int is 0x401dde
My int is 0x401de4
My int is 0x401de8
My int is 0x401df0
My int is 0x401df5
My Fetch_size is 0xc
My int is 0x401dbf
My int is 0x401dbf
My int is 0x401dc5
My int is 0x401dc9
My int is 0x401dd1

Input Size: 940
Cache size: 10
Hit Count: 852
Cache filled 76 times.
My int is 0x401dd6
My int is 0x401dda
My int is 0x401dde
My int is 0x401de4
My int is 0x401de8
My int is 0x401df0
My int is 0x401df5
My Fetch_size is 0xc
My int is 0x401dbf
My int is 0x401dbf
My int is 0x401dc5

Input Size: 950
Cache size: 10
Hit Count: 861
Cache filled 77 times.
My int is 0x401dc9
My int is 0x401dd1
My int is 0x401dd6
My int is 0x401dda
My int is 0x401dde
My int is 0x401de4
My int is 0x401de8
My int is 0x401df0
My int is 0x401df5
My Fetch_size is 0xc
My int is 0x401dbf

Input Size: 960
Cache size: 10
Hit Count: 870
Cache filled 78 times.
My int is 0x401dbf
My int is 0x401dc5
My int is 0x401dc9
My int is 0x401dd1
My int is 0x401dd6
My int is 0x401dda
My int is 0x401dde
My int is 0x401de4
My int is 0x401de8
My int is 0x401df0

Input Size: 970
Cache size: 10
Hit Count: 880
Cache filled 78 times.
My int is 0x401df5
My Fetch_size is 0xc
My int is 0x401dbf
My int is 0x401dbf
My int is 0x401dc5
My int is 0x401dc9
My int is 0x401dd1
My int is 0x401dd6
My int is 0x401dda
My int is 0x401dde
My int is 0x401de4

Input Size: 980
Cache size: 10
Hit Count: 889
Cache filled 79 times.
My int is 0x401de8
My int is 0x401df0
My int is 0x401df5
My Fetch_size is 0xc
My int is 0x401dbf
My int is 0x401dbf
My int is 0x401dc5
My int is 0x401dc9
My int is 0x401dd1
My int is 0x401dd6
My int is 0x401dda

Input Size: 990
Cache size: 10
Hit Count: 898
Cache filled 80 times.
My int is 0x401dde
My int is 0x401de4
My int is 0x401de8
My int is 0x401df0
My int is 0x401df5
My Fetch_size is 0xc
My int is 0x401dbf
My int is 0x401dbf
My int is 0x401dc5
My int is 0x401dc9
My int is 0x401dd1

Input Size: 1000
Cache size: 10
Hit Count: 907
Cache filled 81 times.
My int is 0x401dd6
My int is 0x401dda
My int is 0x401dde
My int is 0x401de4
My int is 0x401de8
My int is 0x401df0
My int is 0x401df5
My Fetch_size is 0xc
My int is 0x401dbf
My int is 0x401dbf
My int is 0x401dc5

Input Size: 1010
Cache size: 10
Hit Count: 916
Cache filled 82 times.
My int is 0x401dc9
My int is 0x401dd1
My int is 0x401dd6
My int is 0x401dda
My int is 0x401dde
My int is 0x401de4
My int is 0x401de8
My int is 0x401df0
My int is 0x401df5
My Fetch_size is 0xc
My int is 0x401dbf

Input Size: 1020
Cache size: 10
Hit Count: 925
Cache filled 83 times.
My int is 0x401dbf
My int is 0x401dc5
My int is 0x401dc9
My int is 0x401dd1
My int is 0x401dd6
My int is 0x401dda
My int is 0x401dde
My int is 0x401de4
My int is 0x401de8
My int is 0x401df0

Input Size: 1030
Cache size: 10
Hit Count: 935
Cache filled 83 times.
My int is 0x401df5
My Fetch_size is 0xc
My int is 0x401dbf
My int is 0x401dbf
My int is 0x401dc5
My int is 0x401dc9
My int is 0x401dd1
My int is 0x401dd6
My int is 0x401dda
My int is 0x401dde
My int is 0x401de4

Input Size: 1040
Cache size: 10
Hit Count: 944
Cache filled 84 times.
My int is 0x401de8
My int is 0x401df0
My int is 0x401df5
My Fetch_size is 0xc
My int is 0x401dbf
My int is 0x401dbf
My int is 0x401dc5
My int is 0x401dc9
My int is 0x401dd1
My int is 0x401dd6
My int is 0x401dda

Input Size: 1050
Cache size: 10
Hit Count: 953
Cache filled 85 times.
My int is 0x401dde
My int is 0x401de4
My int is 0x401de8
My int is 0x401df0
My int is 0x401df5
My Fetch_size is 0xc
My int is 0x401dbf
My int is 0x401dbf
My int is 0x401dc5
My int is 0x401dc9
My int is 0x401dd1

Input Size: 1060
Cache size: 10
Hit Count: 962
Cache filled 86 times.
My int is 0x401dd6
My int is 0x401dda
My int is 0x401dde
My int is 0x401de4
My int is 0x401de8
My int is 0x401df0
My int is 0x401df5
My Fetch_size is 0xc
My int is 0x401dbf
My int is 0x401dbf
My int is 0x401dc5

Input Size: 1070
Cache size: 10
Hit Count: 971
Cache filled 87 times.
My int is 0x401dc9
My int is 0x401dd1
My int is 0x401dd6
My int is 0x401dda
My int is 0x401dde
My int is 0x401de4
My int is 0x401de8
My int is 0x401df0
My int is 0x401df5
My Fetch_size is 0xc
My int is 0x401dbf

Input Size: 1080
Cache size: 10
Hit Count: 980
Cache filled 88 times.
My int is 0x401dbf
My int is 0x401dc5
My int is 0x401dc9
My int is 0x401dd1
My int is 0x401dd6
My int is 0x401dda
My int is 0x401dde
My int is 0x401de4
My int is 0x401de8
My int is 0x401df0

Input Size: 1090
Cache size: 10
Hit Count: 990
Cache filled 88 times.
My int is 0x401df5
My Fetch_size is 0xc
My int is 0x401dbf
My int is 0x401dbf
My int is 0x401dc5
My int is 0x401dc9
My int is 0x401dd1
My int is 0x401dd6
My int is 0x401dda
My int is 0x401dde
My int is 0x401de4

Input Size: 1100
Cache size: 10
Hit Count: 999
Cache filled 89 times.
My int is 0x401de8
My int is 0x401df0
My int is 0x401df5
My Fetch_size is 0xc
My int is 0x401dbf
My int is 0x401dbf
My int is 0x401dc5
My int is 0x401dc9
My int is 0x401dd1
My int is 0x401dd6
My int is 0x401dda

Input Size: 1110
Cache size: 10
Hit Count: 1008
Cache filled 90 times.
My int is 0x401dde
My int is 0x401de4
My int is 0x401de8
My int is 0x401df0
My int is 0x401df5
My Fetch_size is 0xc
My int is 0x401dbf
My int is 0x401dbf
My int is 0x401dc5
My int is 0x401dc9
My int is 0x401dd1

Input Size: 1120
Cache size: 10
Hit Count: 1017
Cache filled 91 times.
My int is 0x401dd6
My int is 0x401dda
My int is 0x401dde
My int is 0x401de4
My int is 0x401de8
My int is 0x401df0
My int is 0x401df5
My Fetch_size is 0xc
My int is 0x401dbf
My int is 0x401dbf
My int is 0x401dc5

Input Size: 1130
Cache size: 10
Hit Count: 1026
Cache filled 92 times.
My int is 0x401dc9
My int is 0x401dd1
My int is 0x401dd6
My int is 0x401dda
My int is 0x401dde
My int is 0x401de4
My int is 0x401de8
My int is 0x401df0
My int is 0x401df5
My Fetch_size is 0xc
My int is 0x401dbf

Input Size: 1140
Cache size: 10
Hit Count: 1035
Cache filled 93 times.
My int is 0x401dbf
My int is 0x401dc5
My int is 0x401dc9
My int is 0x401dd1
My int is 0x401dd6
My int is 0x401dda
My int is 0x401dde
My int is 0x401de4
My int is 0x401de8
My int is 0x401df0

Input Size: 1150
Cache size: 10
Hit Count: 1045
Cache filled 93 times.
My int is 0x401df5
My Fetch_size is 0xc
My int is 0x401dbf
My int is 0x401dbf
My int is 0x401dc5
My int is 0x401dc9
My int is 0x401dd1
My int is 0x401dd6
My int is 0x401dda
My int is 0x401dde
My int is 0x401de4

Input Size: 1160
Cache size: 10
Hit Count: 1054
Cache filled 94 times.
My int is 0x401de8
My int is 0x401df0
My int is 0x401df5
My Fetch_size is 0xc
My int is 0x401dbf
My int is 0x401dbf
My int is 0x401dc5
My int is 0x401dc9
My int is 0x401dd1
My int is 0x401dd6
My int is 0x401dda

Input Size: 1170
Cache size: 10
Hit Count: 1063
Cache filled 95 times.
My int is 0x401dde
My int is 0x401de4
My int is 0x401de8
My int is 0x401df0
My int is 0x401df5
My Fetch_size is 0xc
My int is 0x401dbf
My int is 0x401dbf
My int is 0x401dc5
My int is 0x401dc9
My int is 0x401dd1

Input Size: 1180
Cache size: 10
Hit Count: 1072
Cache filled 96 times.
My int is 0x401dd6
My int is 0x401dda
My int is 0x401dde
My int is 0x401de4
My int is 0x401de8
My int is 0x401df0
My int is 0x401df5
My Fetch_size is 0xc
My int is 0x401dbf
My int is 0x401dbf
My int is 0x401dc5

Input Size: 1190
Cache size: 10
Hit Count: 1081
Cache filled 97 times.
My int is 0x401dc9
My int is 0x401dd1
My int is 0x401dd6
My int is 0x401dda
My int is 0x401dde
My int is 0x401de4
My int is 0x401de8
My int is 0x401df0
My int is 0x401df5
My Fetch_size is 0xc
My int is 0x401dbf

Input Size: 1200
Cache size: 10
Hit Count: 1090
Cache filled 98 times.
My int is 0x401dbf
My int is 0x401dc5
My int is 0x401dc9
My int is 0x401dd1
My int is 0x401dd6
My int is 0x401dda
My int is 0x401dde
My int is 0x401de4
My int is 0x401de8
My int is 0x401df0

Input Size: 1210
Cache size: 10
Hit Count: 1100
Cache filled 98 times.
My int is 0x401df5
My Fetch_size is 0xc
My int is 0x401dbf
My int is 0x401dbf
My int is 0x401dc5
My int is 0x401dc9
My int is 0x401dd1
My int is 0x401dd6
My int is 0x401dda
My int is 0x401dde
My int is 0x401de4

Input Size: 1220
Cache size: 10
Hit Count: 1109
Cache filled 99 times.
My int is 0x401de8
My int is 0x401df0
My int is 0x401df5
My Fetch_size is 0xc
My int is 0x401dbf
My int is 0x401dbf
My int is 0x401dc5
My int is 0x401dc9
My int is 0x401dd1
My int is 0x401dd6
My int is 0x401dda

Input Size: 1230
Cache size: 10
Hit Count: 1118
Cache filled 100 times.
My int is 0x401dde
My int is 0x401de4
My int is 0x401de8
My int is 0x401df0
My int is 0x401df5
My Fetch_size is 0xc
My int is 0x401dbf
My int is 0x401dbf
My int is 0x401dc5
My int is 0x401dc9
My int is 0x401dd1

Input Size: 1240
Cache size: 10
Hit Count: 1127
Cache filled 101 times.
My int is 0x401dd6
My int is 0x401dda
My int is 0x401dde
My int is 0x401de4
My int is 0x401de8
My int is 0x401df0
My int is 0x401df5
My Fetch_size is 0xc
My int is 0x401dbf
My int is 0x401dbf
My int is 0x401dc5

Input Size: 1250
Cache size: 10
Hit Count: 1136
Cache filled 102 times.
My int is 0x401dc9
My int is 0x401dd1
My int is 0x401dd6
My int is 0x401dda
My int is 0x401dde
My int is 0x401de4
My int is 0x401de8
My int is 0x401df0
My int is 0x401df5
My Fetch_size is 0xc
My int is 0x401dbf

Input Size: 1260
Cache size: 10
Hit Count: 1145
Cache filled 103 times.
My int is 0x401dbf
My int is 0x401dc5
My int is 0x401dc9
My int is 0x401dd1
My int is 0x401dd6
My int is 0x401dda
My int is 0x401dde
My int is 0x401de4
My int is 0x401de8
My int is 0x401df0

Input Size: 1270
Cache size: 10
Hit Count: 1155
Cache filled 103 times.
My int is 0x401df5
My Fetch_size is 0xc
My int is 0x401dbf
My int is 0x401dbf
My int is 0x401dc5
My int is 0x401dc9
My int is 0x401dd1
My int is 0x401dd6
My int is 0x401dda
My int is 0x401dde
My int is 0x401de4

Input Size: 1280
Cache size: 10
Hit Count: 1164
Cache filled 104 times.
My int is 0x401de8
My int is 0x401df0
My int is 0x401df5
My Fetch_size is 0xc
My int is 0x401dbf
My int is 0x401dbf
My int is 0x401dc5
My int is 0x401dc9
My int is 0x401dd1
My int is 0x401dd6
My int is 0x401dda

Input Size: 1290
Cache size: 10
Hit Count: 1173
Cache filled 105 times.
My int is 0x401dde
My int is 0x401de4
My int is 0x401de8
My int is 0x401df0
My int is 0x401df5
My Fetch_size is 0xc
My int is 0x401dbf
My int is 0x401dbf
My int is 0x401dc5
My int is 0x401dc9
My int is 0x401dd1

Input Size: 1300
Cache size: 10
Hit Count: 1182
Cache filled 106 times.
My int is 0x401dd6
My int is 0x401dda
My int is 0x401dde
My int is 0x401de4
My int is 0x401de8
My int is 0x401df0
My int is 0x401df5
My Fetch_size is 0xc
My int is 0x401dbf
My int is 0x401dbf
My int is 0x401dc5

Input Size: 1310
Cache size: 10
Hit Count: 1191
Cache filled 107 times.
My int is 0x401dc9
My int is 0x401dd1
My int is 0x401dd6
My int is 0x401dda
My int is 0x401dde
My int is 0x401de4
My int is 0x401de8
My int is 0x401df0
My int is 0x401df5
My Fetch_size is 0xc
My int is 0x401dbf

Input Size: 1320
Cache size: 10
Hit Count: 1200
Cache filled 108 times.
My int is 0x401dbf
My int is 0x401dc5
My int is 0x401dc9
My int is 0x401dd1
My int is 0x401dd6
My int is 0x401dda
My int is 0x401dde
My int is 0x401de4
My int is 0x401de8
My int is 0x401df0

Input Size: 1330
Cache size: 10
Hit Count: 1210
Cache filled 108 times.
My int is 0x401df5
My Fetch_size is 0xc
My int is 0x401dbf
My int is 0x401dbf
My int is 0x401dc5
My int is 0x401dc9
My int is 0x401dd1
My int is 0x401dd6
My int is 0x401dda
My int is 0x401dde
My int is 0x401de4

Input Size: 1340
Cache size: 10
Hit Count: 1219
Cache filled 109 times.
My int is 0x401de8
My int is 0x401df0
My int is 0x401df5
My Fetch_size is 0xc
My int is 0x401dbf
My int is 0x401dbf
My int is 0x401dc5
My int is 0x401dc9
My int is 0x401dd1
My int is 0x401dd6
My int is 0x401dda

Input Size: 1350
Cache size: 10
Hit Count: 1228
Cache filled 110 times.
My int is 0x401dde
My int is 0x401de4
My int is 0x401de8
My int is 0x401df0
My int is 0x401df5
My Fetch_size is 0xc
My int is 0x401dbf
My int is 0x401dbf
My int is 0x401dc5
My int is 0x401dc9
My int is 0x401dd1

Input Size: 1360
Cache size: 10
Hit Count: 1237
Cache filled 111 times.
My int is 0x401dd6
My int is 0x401dda
My int is 0x401dde
My int is 0x401de4
My int is 0x401de8
My int is 0x401df0
My int is 0x401df5
My Fetch_size is 0xc
My int is 0x401dbf
My int is 0x401dbf
My int is 0x401dc5

Input Size: 1370
Cache size: 10
Hit Count: 1246
Cache filled 112 times.
My int is 0x401dc9
My int is 0x401dd1
My int is 0x401dd6
My int is 0x401dda
My int is 0x401dde
My int is 0x401de4
My int is 0x401de8
My int is 0x401df0
My int is 0x401df5
My Fetch_size is 0xc
My int is 0x401dbf

Input Size: 1380
Cache size: 10
Hit Count: 1255
Cache filled 113 times.
My int is 0x401dbf
My int is 0x401dc5
My int is 0x401dc9
My int is 0x401dd1
My int is 0x401dd6
My int is 0x401dda
My int is 0x401dde
My int is 0x401de4
My int is 0x401de8
My int is 0x401df0

Input Size: 1390
Cache size: 10
Hit Count: 1265
Cache filled 113 times.
My int is 0x401df5
My Fetch_size is 0xc
My int is 0x401dbf
My int is 0x401dbf
My int is 0x401dc5
My int is 0x401dc9
My int is 0x401dd1
My int is 0x401dd6
My int is 0x401dda
My int is 0x401dde
My int is 0x401de4

Input Size: 1400
Cache size: 10
Hit Count: 1274
Cache filled 114 times.
My int is 0x401de8
My int is 0x401df0
My int is 0x401df5
My Fetch_size is 0xc
My int is 0x401dbf
My int is 0x401dbf
My int is 0x401dc5
My int is 0x401dc9
My int is 0x401dd1
My int is 0x401dd6
My int is 0x401dda

Input Size: 1410
Cache size: 10
Hit Count: 1283
Cache filled 115 times.
My int is 0x401dde
My int is 0x401de4
My int is 0x401de8
My int is 0x401df0
My int is 0x401df5
My Fetch_size is 0xc
My int is 0x401dbf
My int is 0x401dbf
My int is 0x401dc5
My int is 0x401dc9
My int is 0x401dd1

Input Size: 1420
Cache size: 10
Hit Count: 1292
Cache filled 116 times.
My int is 0x401dd6
My int is 0x401dda
My int is 0x401dde
My int is 0x401de4
My int is 0x401de8
My int is 0x401df0
My int is 0x401df5
My Fetch_size is 0xc
My int is 0x401dbf
My int is 0x401dbf
My int is 0x401dc5

Input Size: 1430
Cache size: 10
Hit Count: 1301
Cache filled 117 times.
My int is 0x401dc9
My int is 0x401dd1
My int is 0x401dd6
My int is 0x401dda
My int is 0x401dde
My int is 0x401de4
My int is 0x401de8
My int is 0x401df0
My int is 0x401df5
My Fetch_size is 0xc
My int is 0x401dbf

Input Size: 1440
Cache size: 10
Hit Count: 1310
Cache filled 118 times.
My int is 0x401dbf
My int is 0x401dc5
My int is 0x401dc9
My int is 0x401dd1
My int is 0x401dd6
My int is 0x401dda
My int is 0x401dde
My int is 0x401de4
My int is 0x401de8
My int is 0x401df0

Input Size: 1450
Cache size: 10
Hit Count: 1320
Cache filled 118 times.
My int is 0x401df5
My Fetch_size is 0xc
My int is 0x401dbf
My int is 0x401dbf
My int is 0x401dc5
My int is 0x401dc9
My int is 0x401dd1
My int is 0x401dd6
My int is 0x401dda
My int is 0x401dde
My int is 0x401de4

Input Size: 1460
Cache size: 10
Hit Count: 1329
Cache filled 119 times.
My int is 0x401de8
My int is 0x401df0
My int is 0x401df5
My Fetch_size is 0xc
My int is 0x401dbf
My int is 0x401dbf
My int is 0x401dc5
My int is 0x401dc9
My int is 0x401dd1
My int is 0x401dd6
My int is 0x401dda

Input Size: 1470
Cache size: 10
Hit Count: 1338
Cache filled 120 times.
My int is 0x401dde
My int is 0x401de4
My int is 0x401de8
My int is 0x401df0
My int is 0x401df5
My Fetch_size is 0xc
My int is 0x401dbf
My int is 0x401dbf
My int is 0x401dc5
My int is 0x401dc9
My int is 0x401dd1

Input Size: 1480
Cache size: 10
Hit Count: 1347
Cache filled 121 times.
My int is 0x401dd6
My int is 0x401dda
My int is 0x401dde
My int is 0x401de4
My int is 0x401de8
My int is 0x401df0
My int is 0x401df5
My Fetch_size is 0xc
My int is 0x401dbf
My int is 0x401dbf
My int is 0x401dc5

Input Size: 1490
Cache size: 10
Hit Count: 1356
Cache filled 122 times.
My int is 0x401dc9
My int is 0x401dd1
My int is 0x401dd6
My int is 0x401dda
My int is 0x401dde
My int is 0x401de4
My int is 0x401de8
My int is 0x401df0
My int is 0x401df5
My Fetch_size is 0xc
My int is 0x401dbf

Input Size: 1500
Cache size: 10
Hit Count: 1365
Cache filled 123 times.
My int is 0x401dbf
My int is 0x401dc5
My int is 0x401dc9
My int is 0x401dd1
My int is 0x401dd6
My int is 0x401dda
My int is 0x401dde
My int is 0x401de4
My int is 0x401de8
My int is 0x401df0

Input Size: 1510
Cache size: 10
Hit Count: 1375
Cache filled 123 times.
My int is 0x401df5
My Fetch_size is 0xc
My int is 0x401dbf
My int is 0x401dbf
My int is 0x401dc5
My int is 0x401dc9
My int is 0x401dd1
My int is 0x401dd6
My int is 0x401dda
My int is 0x401dde
My int is 0x401de4

Input Size: 1520
Cache size: 10
Hit Count: 1384
Cache filled 124 times.
My int is 0x401de8
My int is 0x401df0
My int is 0x401df5
My Fetch_size is 0xc
My int is 0x401dbf
My int is 0x401dbf
My int is 0x401dc5
My int is 0x401dc9
My int is 0x401dd1
My int is 0x401dd6
My int is 0x401dda

Input Size: 1530
Cache size: 10
Hit Count: 1393
Cache filled 125 times.
My int is 0x401dde
My int is 0x401de4
My int is 0x401de8
My int is 0x401df0
My int is 0x401df5
My Fetch_size is 0xc
My int is 0x401dbf
My int is 0x401dbf
My int is 0x401dc5
My int is 0x401dc9
My int is 0x401dd1

Input Size: 1540
Cache size: 10
Hit Count: 1402
Cache filled 126 times.
My int is 0x401dd6
My int is 0x401dda
My int is 0x401dde
My int is 0x401de4
My int is 0x401de8
My int is 0x401df0
My int is 0x401df5
My Fetch_size is 0xc
My int is 0x401dbf
My int is 0x401dbf
My int is 0x401dc5

Input Size: 1550
Cache size: 10
Hit Count: 1411
Cache filled 127 times.
My int is 0x401dc9
My int is 0x401dd1
My int is 0x401dd6
My int is 0x401dda
My int is 0x401dde
My int is 0x401de4
My int is 0x401de8
My int is 0x401df0
My int is 0x401df5
My Fetch_size is 0xc
My int is 0x401dbf

Input Size: 1560
Cache size: 10
Hit Count: 1420
Cache filled 128 times.
My int is 0x401dbf
My int is 0x401dc5
My int is 0x401dc9
My int is 0x401dd1
My int is 0x401dd6
My int is 0x401dda
My int is 0x401dde
My int is 0x401de4
My int is 0x401de8
My int is 0x401df0

Input Size: 1570
Cache size: 10
Hit Count: 1430
Cache filled 128 times.
My int is 0x401df5
My Fetch_size is 0xc
My int is 0x401dbf
My int is 0x401dbf
My int is 0x401dc5
My int is 0x401dc9
My int is 0x401dd1
My int is 0x401dd6
My int is 0x401dda
My int is 0x401dde
My int is 0x401de4

Input Size: 1580
Cache size: 10
Hit Count: 1439
Cache filled 129 times.
My int is 0x401de8
My int is 0x401df0
My int is 0x401df5
My Fetch_size is 0xc
My int is 0x401dbf
My int is 0x401dbf
My int is 0x401dc5
My int is 0x401dc9
My int is 0x401dd1
My int is 0x401dd6
My int is 0x401dda

Input Size: 1590
Cache size: 10
Hit Count: 1448
Cache filled 130 times.
My int is 0x401dde
My int is 0x401de4
My int is 0x401de8
My int is 0x401df0
My int is 0x401df5
My Fetch_size is 0xc
My int is 0x401dbf
My int is 0x401dbf
My int is 0x401dc5
My int is 0x401dc9
My int is 0x401dd1

Input Size: 1600
Cache size: 10
Hit Count: 1457
Cache filled 131 times.
My int is 0x401dd6
My int is 0x401dda
My int is 0x401dde
My int is 0x401de4
My int is 0x401de8
My int is 0x401df0
My int is 0x401df5
My Fetch_size is 0xc
My int is 0x401dbf
My int is 0x401dbf
My int is 0x401dc5

Input Size: 1610
Cache size: 10
Hit Count: 1466
Cache filled 132 times.
My int is 0x401dc9
My int is 0x401dd1
My int is 0x401dd6
My int is 0x401dda
My int is 0x401dde
My int is 0x401de4
My int is 0x401de8
My int is 0x401df0
My int is 0x401df5
My Fetch_size is 0xc
My int is 0x401dbf

Input Size: 1620
Cache size: 10
Hit Count: 1475
Cache filled 133 times.
My int is 0x401dbf
My int is 0x401dc5
My int is 0x401dc9
My int is 0x401dd1
My int is 0x401dd6
My int is 0x401dda
My int is 0x401dde
My int is 0x401de4
My int is 0x401de8
My int is 0x401df0

Input Size: 1630
Cache size: 10
Hit Count: 1485
Cache filled 133 times.
My int is 0x401df5
My Fetch_size is 0xc
My int is 0x401dbf
My int is 0x401dbf
My int is 0x401dc5
My int is 0x401dc9
My int is 0x401dd1
My int is 0x401dd6
My int is 0x401dda
My int is 0x401dde
My int is 0x401de4

Input Size: 1640
Cache size: 10
Hit Count: 1494
Cache filled 134 times.
My int is 0x401de8
My int is 0x401df0
My int is 0x401df5
My Fetch_size is 0xc
My int is 0x401dbf
My int is 0x401dbf
My int is 0x401dc5
My int is 0x401dc9
My int is 0x401dd1
My int is 0x401dd6
My int is 0x401dda

Input Size: 1650
Cache size: 10
Hit Count: 1503
Cache filled 135 times.
My int is 0x401dde
My int is 0x401de4
My int is 0x401de8
My int is 0x401df0
My int is 0x401df5
My Fetch_size is 0xc
My int is 0x401dbf
My int is 0x401dbf
My int is 0x401dc5
My int is 0x401dc9
My int is 0x401dd1

Input Size: 1660
Cache size: 10
Hit Count: 1512
Cache filled 136 times.
My int is 0x401dd6
My int is 0x401dda
My int is 0x401dde
My int is 0x401de4
My int is 0x401de8
My int is 0x401df0
My int is 0x401df5
My Fetch_size is 0xc
My int is 0x401dbf
My int is 0x401dbf
My int is 0x401dc5

Input Size: 1670
Cache size: 10
Hit Count: 1521
Cache filled 137 times.
My int is 0x401dc9
My int is 0x401dd1
My int is 0x401dd6
My int is 0x401dda
My int is 0x401dde
My int is 0x401de4
My int is 0x401de8
My int is 0x401df0
My int is 0x401df5
My Fetch_size is 0xc
My int is 0x401dbf

Input Size: 1680
Cache size: 10
Hit Count: 1530
Cache filled 138 times.
My int is 0x401dbf
My int is 0x401dc5
My int is 0x401dc9
My int is 0x401dd1
My int is 0x401dd6
My int is 0x401dda
My int is 0x401dde
My int is 0x401de4
My int is 0x401de8
My int is 0x401df0

Input Size: 1690
Cache size: 10
Hit Count: 1540
Cache filled 138 times.
My int is 0x401df5
My Fetch_size is 0xc
My int is 0x401dbf
My int is 0x401dbf
My int is 0x401dc5
My int is 0x401dc9
My int is 0x401dd1
My int is 0x401dd6
My int is 0x401dda
My int is 0x401dde
My int is 0x401de4

Input Size: 1700
Cache size: 10
Hit Count: 1549
Cache filled 139 times.
My int is 0x401de8
My int is 0x401df0
My int is 0x401df5
My Fetch_size is 0xc
My int is 0x401dbf
My int is 0x401dbf
My int is 0x401dc5
My int is 0x401dc9
My int is 0x401dd1
My int is 0x401dd6
My int is 0x401dda

Input Size: 1710
Cache size: 10
Hit Count: 1558
Cache filled 140 times.
My int is 0x401dde
My int is 0x401de4
My int is 0x401de8
My int is 0x401df0
My int is 0x401df5
My Fetch_size is 0xc
My int is 0x401dbf
My int is 0x401dbf
My int is 0x401dc5
My int is 0x401dc9
My int is 0x401dd1

Input Size: 1720
Cache size: 10
Hit Count: 1567
Cache filled 141 times.
My int is 0x401dd6
My int is 0x401dda
My int is 0x401dde
My int is 0x401de4
My int is 0x401de8
My int is 0x401df0
My int is 0x401df5
My Fetch_size is 0xc
My int is 0x401dbf
My int is 0x401dbf
My int is 0x401dc5

Input Size: 1730
Cache size: 10
Hit Count: 1576
Cache filled 142 times.
My int is 0x401dc9
My int is 0x401dd1
My int is 0x401dd6
My int is 0x401dda
My int is 0x401dde
My int is 0x401de4
My int is 0x401de8
My int is 0x401df0
My int is 0x401df5
My Fetch_size is 0xc
My int is 0x401dbf

Input Size: 1740
Cache size: 10
Hit Count: 1585
Cache filled 143 times.
My int is 0x401dbf
My int is 0x401dc5
My int is 0x401dc9
My int is 0x401dd1
My int is 0x401dd6
My int is 0x401dda
My int is 0x401dde
My int is 0x401de4
My int is 0x401de8
My int is 0x401df0

Input Size: 1750
Cache size: 10
Hit Count: 1595
Cache filled 143 times.
My int is 0x401df5
My Fetch_size is 0xc
My int is 0x401dbf
My int is 0x401dbf
My int is 0x401dc5
My int is 0x401dc9
My int is 0x401dd1
My int is 0x401dd6
My int is 0x401dda
My int is 0x401dde
My int is 0x401de4

Input Size: 1760
Cache size: 10
Hit Count: 1604
Cache filled 144 times.
My int is 0x401de8
My int is 0x401df0
My int is 0x401df5
My Fetch_size is 0xc
My int is 0x401dbf
My int is 0x401dbf
My int is 0x401dc5
My int is 0x401dc9
My int is 0x401dd1
My int is 0x401dd6
My int is 0x401dda

Input Size: 1770
Cache size: 10
Hit Count: 1613
Cache filled 145 times.
My int is 0x401dde
My int is 0x401de4
My int is 0x401de8
My int is 0x401df0
My int is 0x401df5
My Fetch_size is 0xc
My int is 0x401dbf
My int is 0x401dbf
My int is 0x401dc5
My int is 0x401dc9
My int is 0x401dd1

Input Size: 1780
Cache size: 10
Hit Count: 1622
Cache filled 146 times.
My int is 0x401dd6
My int is 0x401dda
My int is 0x401dde
My int is 0x401de4
My int is 0x401de8
My int is 0x401df0
My int is 0x401df5
My Fetch_size is 0xc
My int is 0x401dbf
My int is 0x401dbf
My int is 0x401dc5

Input Size: 1790
Cache size: 10
Hit Count: 1631
Cache filled 147 times.
My int is 0x401dc9
My int is 0x401dd1
My int is 0x401dd6
My int is 0x401dda
My int is 0x401dde
My int is 0x401de4
My int is 0x401de8
My int is 0x401df0
My int is 0x401df5
My Fetch_size is 0xc
My int is 0x401dbf

Input Size: 1800
Cache size: 10
Hit Count: 1640
Cache filled 148 times.
My int is 0x401dbf
My int is 0x401dc5
My int is 0x401dc9
My int is 0x401dd1
My int is 0x401dd6
My int is 0x401dda
My int is 0x401dde
My int is 0x401de4
My int is 0x401de8
My int is 0x401df0

Input Size: 1810
Cache size: 10
Hit Count: 1650
Cache filled 148 times.
My int is 0x401df5
My Fetch_size is 0xc
My int is 0x401dbf
My int is 0x401dbf
My int is 0x401dc5
My int is 0x401dc9
My int is 0x401dd1
My int is 0x401dd6
My int is 0x401dda
My int is 0x401dde
My int is 0x401de4

Input Size: 1820
Cache size: 10
Hit Count: 1659
Cache filled 149 times.
My int is 0x401de8
My int is 0x401df0
My int is 0x401df5
My Fetch_size is 0xc
My int is 0x401dbf
My int is 0x401dbf
My int is 0x401dc5
My int is 0x401dc9
My int is 0x401dd1
My int is 0x401dd6
My int is 0x401dda

Input Size: 1830
Cache size: 10
Hit Count: 1668
Cache filled 150 times.
My int is 0x401dde
My int is 0x401de4
My int is 0x401de8
My int is 0x401df0
My int is 0x401df5
My Fetch_size is 0xc
My int is 0x401dbf
My int is 0x401dbf
My int is 0x401dc5
My int is 0x401dc9
My int is 0x401dd1

Input Size: 1840
Cache size: 10
Hit Count: 1677
Cache filled 151 times.
My int is 0x401dd6
My int is 0x401dda
My int is 0x401dde
My int is 0x401de4
My int is 0x401de8
My int is 0x401df0
My int is 0x401df5
My Fetch_size is 0xc
My int is 0x401dbf
My int is 0x401dbf
My int is 0x401dc5

Input Size: 1850
Cache size: 10
Hit Count: 1686
Cache filled 152 times.
My int is 0x401dc9
My int is 0x401dd1
My int is 0x401dd6
My int is 0x401dda
My int is 0x401dde
My int is 0x401de4
My int is 0x401de8
My int is 0x401df0
My int is 0x401df5
My Fetch_size is 0xc
My int is 0x401dbf

Input Size: 1860
Cache size: 10
Hit Count: 1695
Cache filled 153 times.
My int is 0x401dbf
My int is 0x401dc5
My int is 0x401dc9
My int is 0x401dd1
My int is 0x401dd6
My int is 0x401dda
My int is 0x401dde
My int is 0x401de4
My int is 0x401de8
My int is 0x401df0

Input Size: 1870
Cache size: 10
Hit Count: 1705
Cache filled 153 times.
My int is 0x401df5
My Fetch_size is 0xc
My int is 0x401dbf
My int is 0x401dbf
My int is 0x401dc5
My int is 0x401dc9
My int is 0x401dd1
My int is 0x401dd6
My int is 0x401dda
My int is 0x401dde
My int is 0x401de4

Input Size: 1880
Cache size: 10
Hit Count: 1714
Cache filled 154 times.
My int is 0x401de8
My int is 0x401df0
My int is 0x401df5
My Fetch_size is 0xc
My int is 0x401dbf
My int is 0x401dbf
My int is 0x401dc5
My int is 0x401dc9
My int is 0x401dd1
My int is 0x401dd6
My int is 0x401dda

Input Size: 1890
Cache size: 10
Hit Count: 1723
Cache filled 155 times.
My int is 0x401dde
My int is 0x401de4
My int is 0x401de8
My int is 0x401df0
My int is 0x401df5
My Fetch_size is 0xc
My int is 0x401dbf
My int is 0x401dbf
My int is 0x401dc5
My int is 0x401dc9
My int is 0x401dd1

Input Size: 1900
Cache size: 10
Hit Count: 1732
Cache filled 156 times.
My int is 0x401dd6
My int is 0x401dda
My int is 0x401dde
My int is 0x401de4
My int is 0x401de8
My int is 0x401df0
My int is 0x401df5
My Fetch_size is 0xc
My int is 0x401dbf
My int is 0x401dbf
My int is 0x401dc5

Input Size: 1910
Cache size: 10
Hit Count: 1741
Cache filled 157 times.
My int is 0x401dc9
My int is 0x401dd1
My int is 0x401dd6
My int is 0x401dda
My int is 0x401dde
My int is 0x401de4
My int is 0x401de8
My int is 0x401df0
My int is 0x401df5
My Fetch_size is 0xc
My int is 0x401dbf

Input Size: 1920
Cache size: 10
Hit Count: 1750
Cache filled 158 times.
My int is 0x401dbf
My int is 0x401dc5
My int is 0x401dc9
My int is 0x401dd1
My int is 0x401dd6
My int is 0x401dda
My int is 0x401dde
My int is 0x401de4
My int is 0x401de8
My int is 0x401df0

Input Size: 1930
Cache size: 10
Hit Count: 1760
Cache filled 158 times.
My int is 0x401df5
My Fetch_size is 0xc
My int is 0x401dbf
My int is 0x401dbf
My int is 0x401dc5
My int is 0x401dc9
My int is 0x401dd1
My int is 0x401dd6
My int is 0x401dda
My int is 0x401dde
My int is 0x401de4

Input Size: 1940
Cache size: 10
Hit Count: 1769
Cache filled 159 times.
My int is 0x401de8
My int is 0x401df0
My int is 0x401df5
My Fetch_size is 0xc
My int is 0x401dbf
My int is 0x401dbf
My int is 0x401dc5
My int is 0x401dc9
My int is 0x401dd1
My int is 0x401dd6
My int is 0x401dda

Input Size: 1950
Cache size: 10
Hit Count: 1778
Cache filled 160 times.
My int is 0x401dde
My int is 0x401de4
My int is 0x401de8
My int is 0x401df0
My int is 0x401df5
My Fetch_size is 0xc
My int is 0x401dbf
My int is 0x401dbf
My int is 0x401dc5
My int is 0x401dc9
My int is 0x401dd1

Input Size: 1960
Cache size: 10
Hit Count: 1787
Cache filled 161 times.
My int is 0x401dd6
My int is 0x401dda
My int is 0x401dde
My int is 0x401de4
My int is 0x401de8
My int is 0x401df0
My int is 0x401df5
My Fetch_size is 0xc
My int is 0x401dbf
My int is 0x401dbf
My int is 0x401dc5

Input Size: 1970
Cache size: 10
Hit Count: 1796
Cache filled 162 times.
My int is 0x401dc9
My int is 0x401dd1
My int is 0x401dd6
My int is 0x401dda
My int is 0x401dde
My int is 0x401de4
My int is 0x401de8
My int is 0x401df0
My int is 0x401df5
My Fetch_size is 0xc
My int is 0x401dbf

Input Size: 1980
Cache size: 10
Hit Count: 1805
Cache filled 163 times.
My int is 0x401dbf
My int is 0x401dc5
My int is 0x401dc9
My int is 0x401dd1
My int is 0x401dd6
My int is 0x401dda
My int is 0x401dde
My int is 0x401de4
My int is 0x401de8
My int is 0x401df0

Input Size: 1990
Cache size: 10
Hit Count: 1815
Cache filled 163 times.
My int is 0x401df5
My Fetch_size is 0xc
My int is 0x401dbf
My int is 0x401dbf
My int is 0x401dc5
My int is 0x401dc9
My int is 0x401dd1
My int is 0x401dd6
My int is 0x401dda
My int is 0x401dde
My int is 0x401de4

Input Size: 2000
Cache size: 10
Hit Count: 1824
Cache filled 164 times.
My int is 0x401de8
My int is 0x401df0
My int is 0x401df5
My Fetch_size is 0xc
My int is 0x401dbf
My int is 0x401dbf
My int is 0x401dc5
My int is 0x401dc9
My int is 0x401dd1
My int is 0x401dd6
My int is 0x401dda

Input Size: 2010
Cache size: 10
Hit Count: 1833
Cache filled 165 times.
My int is 0x401dde
My int is 0x401de4
My int is 0x401de8
My int is 0x401df0
My int is 0x401df5
My Fetch_size is 0xc
My int is 0x401dbf
My int is 0x401dbf
My int is 0x401dc5
My int is 0x401dc9
My int is 0x401dd1

Input Size: 2020
Cache size: 10
Hit Count: 1842
Cache filled 166 times.
My int is 0x401dd6
My int is 0x401dda
My int is 0x401dde
My int is 0x401de4
My int is 0x401de8
My int is 0x401df0
My int is 0x401df5
My Fetch_size is 0xc
My int is 0x401dbf
My int is 0x401dbf
My int is 0x401dc5

Input Size: 2030
Cache size: 10
Hit Count: 1851
Cache filled 167 times.
My int is 0x401dc9
My int is 0x401dd1
My int is 0x401dd6
My int is 0x401dda
My int is 0x401dde
My int is 0x401de4
My int is 0x401de8
My int is 0x401df0
My int is 0x401df5
My Fetch_size is 0xc
My int is 0x401dbf

Input Size: 2040
Cache size: 10
Hit Count: 1860
Cache filled 168 times.
My int is 0x401dbf
My int is 0x401dc5
My int is 0x401dc9
My int is 0x401dd1
My int is 0x401dd6
My int is 0x401dda
My int is 0x401dde
My int is 0x401de4
My int is 0x401de8
My int is 0x401df0

Input Size: 2050
Cache size: 10
Hit Count: 1870
Cache filled 168 times.
My int is 0x401df5
My Fetch_size is 0xc
My int is 0x401dbf
My int is 0x401dbf
My int is 0x401dc5
My int is 0x401dc9
My int is 0x401dd1
My int is 0x401dd6
My int is 0x401dda
My int is 0x401dde
My int is 0x401de4

Input Size: 2060
Cache size: 10
Hit Count: 1879
Cache filled 169 times.
My int is 0x401de8
My int is 0x401df0
My int is 0x401df5
My Fetch_size is 0xc
My int is 0x401dbf
My int is 0x401dbf
My int is 0x401dc5
My int is 0x401dc9
My int is 0x401dd1
My int is 0x401dd6
My int is 0x401dda

Input Size: 2070
Cache size: 10
Hit Count: 1888
Cache filled 170 times.
My int is 0x401dde
My int is 0x401de4
My int is 0x401de8
My int is 0x401df0
My int is 0x401df5
My Fetch_size is 0xc
My int is 0x401dbf
My int is 0x401dbf
My int is 0x401dc5
My int is 0x401dc9
My int is 0x401dd1

Input Size: 2080
Cache size: 10
Hit Count: 1897
Cache filled 171 times.
My int is 0x401dd6
My int is 0x401dda
My int is 0x401dde
My int is 0x401de4
My int is 0x401de8
My int is 0x401df0
My int is 0x401df5
My Fetch_size is 0xc
My int is 0x401dbf
My int is 0x401dbf
My int is 0x401dc5

Input Size: 2090
Cache size: 10
Hit Count: 1906
Cache filled 172 times.
My int is 0x401dc9
My int is 0x401dd1
My int is 0x401dd6
My int is 0x401dda
My int is 0x401dde
My int is 0x401de4
My int is 0x401de8
My int is 0x401df0
My int is 0x401df5
My Fetch_size is 0xc
My int is 0x401dbf

Input Size: 2100
Cache size: 10
Hit Count: 1915
Cache filled 173 times.
My int is 0x401dbf
My int is 0x401dc5
My int is 0x401dc9
My int is 0x401dd1
My int is 0x401dd6
My int is 0x401dda
My int is 0x401dde
My int is 0x401de4
My int is 0x401de8
My int is 0x401df0

Input Size: 2110
Cache size: 10
Hit Count: 1925
Cache filled 173 times.
My int is 0x401df5
My Fetch_size is 0xc
My int is 0x401dbf
My int is 0x401dbf
My int is 0x401dc5
My int is 0x401dc9
My int is 0x401dd1
My int is 0x401dd6
My int is 0x401dda
My int is 0x401dde
My int is 0x401de4

Input Size: 2120
Cache size: 10
Hit Count: 1934
Cache filled 174 times.
My int is 0x401de8
My int is 0x401df0
My int is 0x401df5
My Fetch_size is 0xc
My int is 0x401dbf
My int is 0x401dbf
My int is 0x401dc5
My int is 0x401dc9
My int is 0x401dd1
My int is 0x401dd6
My int is 0x401dda

Input Size: 2130
Cache size: 10
Hit Count: 1943
Cache filled 175 times.
My int is 0x401dde
My int is 0x401de4
My int is 0x401de8
My int is 0x401df0
My int is 0x401df5
My Fetch_size is 0xc
My int is 0x401dbf
My int is 0x401dbf
My int is 0x401dc5
My int is 0x401dc9
My int is 0x401dd1

Input Size: 2140
Cache size: 10
Hit Count: 1952
Cache filled 176 times.
My int is 0x401dd6
My int is 0x401dda
My int is 0x401dde
My int is 0x401de4
My int is 0x401de8
My int is 0x401df0
My int is 0x401df5
My Fetch_size is 0xc
My int is 0x401dbf
My int is 0x401dbf
My int is 0x401dc5

Input Size: 2150
Cache size: 10
Hit Count: 1961
Cache filled 177 times.
My int is 0x401dc9
My int is 0x401dd1
My int is 0x401dd6
My int is 0x401dda
My int is 0x401dde
My int is 0x401de4
My int is 0x401de8
My int is 0x401df0
My int is 0x401df5
My Fetch_size is 0xc
My int is 0x401dbf

Input Size: 2160
Cache size: 10
Hit Count: 1970
Cache filled 178 times.
My int is 0x401dbf
My int is 0x401dc5
My int is 0x401dc9
My int is 0x401dd1
My int is 0x401dd6
My int is 0x401dda
My int is 0x401dde
My int is 0x401de4
My int is 0x401de8
My int is 0x401df0

Input Size: 2170
Cache size: 10
Hit Count: 1980
Cache filled 178 times.
My int is 0x401df5
My Fetch_size is 0xc
My int is 0x401dbf
My int is 0x401dbf
My int is 0x401dc5
My int is 0x401dc9
My int is 0x401dd1
My int is 0x401dd6
My int is 0x401dda
My int is 0x401dde
My int is 0x401de4

Input Size: 2180
Cache size: 10
Hit Count: 1989
Cache filled 179 times.
My int is 0x401de8
My int is 0x401df0
My int is 0x401df5
My Fetch_size is 0xc
My int is 0x401dbf
My int is 0x401dbf
My int is 0x401dc5
My int is 0x401dc9
My int is 0x401dd1
My int is 0x401dd6
My int is 0x401dda

Input Size: 2190
Cache size: 10
Hit Count: 1998
Cache filled 180 times.
My int is 0x401dde
My int is 0x401de4
My int is 0x401de8
My int is 0x401df0
My int is 0x401df5
My Fetch_size is 0xc
My int is 0x401dbf
My int is 0x401dbf
My int is 0x401dc5
My int is 0x401dc9
My int is 0x401dd1

Input Size: 2200
Cache size: 10
Hit Count: 2007
Cache filled 181 times.
My int is 0x401dd6
My int is 0x401dda
My int is 0x401dde
My int is 0x401de4
My int is 0x401de8
My int is 0x401df0
My int is 0x401df5
My Fetch_size is 0xc
My int is 0x401dbf
My int is 0x401dbf
My int is 0x401dc5

Input Size: 2210
Cache size: 10
Hit Count: 2016
Cache filled 182 times.
My int is 0x401dc9
My int is 0x401dd1
My int is 0x401dd6
My int is 0x401dda
My int is 0x401dde
My int is 0x401de4
My int is 0x401de8
My int is 0x401df0
My int is 0x401df5
My Fetch_size is 0xc
My int is 0x401dbf

Input Size: 2220
Cache size: 10
Hit Count: 2025
Cache filled 183 times.
My int is 0x401dbf
My int is 0x401dc5
My int is 0x401dc9
My int is 0x401dd1
My int is 0x401dd6
My int is 0x401dda
My int is 0x401dde
My int is 0x401de4
My int is 0x401de8
My int is 0x401df0

Input Size: 2230
Cache size: 10
Hit Count: 2035
Cache filled 183 times.
My int is 0x401df5
My Fetch_size is 0xc
My int is 0x401dbf
My int is 0x401dbf
My int is 0x401dc5
My int is 0x401dc9
My int is 0x401dd1
My int is 0x401dd6
My int is 0x401dda
My int is 0x401dde
My int is 0x401de4

Input Size: 2240
Cache size: 10
Hit Count: 2044
Cache filled 184 times.
My int is 0x401de8
My int is 0x401df0
My int is 0x401df5
My Fetch_size is 0xc
My int is 0x401dbf
My int is 0x401dbf
My int is 0x401dc5
My int is 0x401dc9
My int is 0x401dd1
My int is 0x401dd6
My int is 0x401dda

Input Size: 2250
Cache size: 10
Hit Count: 2053
Cache filled 185 times.
My int is 0x401dde
My int is 0x401de4
My int is 0x401de8
My int is 0x401df0
My int is 0x401df5
My Fetch_size is 0xc
My int is 0x401dbf
My int is 0x401dbf
My int is 0x401dc5
My int is 0x401dc9
My int is 0x401dd1

Input Size: 2260
Cache size: 10
Hit Count: 2062
Cache filled 186 times.
My int is 0x401dd6
My int is 0x401dda
My int is 0x401dde
My int is 0x401de4
My int is 0x401de8
My int is 0x401df0
My int is 0x401df5
My Fetch_size is 0xc
My int is 0x401dbf
My int is 0x401dbf
My int is 0x401dc5

Input Size: 2270
Cache size: 10
Hit Count: 2071
Cache filled 187 times.
My int is 0x401dc9
My int is 0x401dd1
My int is 0x401dd6
My int is 0x401dda
My int is 0x401dde
My int is 0x401de4
My int is 0x401de8
My int is 0x401df0
My int is 0x401df5
My Fetch_size is 0xc
My int is 0x401dbf

Input Size: 2280
Cache size: 10
Hit Count: 2080
Cache filled 188 times.
My int is 0x401dbf
My int is 0x401dc5
My int is 0x401dc9
My int is 0x401dd1
My int is 0x401dd6
My int is 0x401dda
My int is 0x401dde
My int is 0x401de4
My int is 0x401de8
My int is 0x401df0

Input Size: 2290
Cache size: 10
Hit Count: 2090
Cache filled 188 times.
My int is 0x401df5
My Fetch_size is 0xc
My int is 0x401dbf
My int is 0x401dbf
My int is 0x401dc5
My int is 0x401dc9
My int is 0x401dd1
My int is 0x401dd6
My int is 0x401dda
My int is 0x401dde
My int is 0x401de4

Input Size: 2300
Cache size: 10
Hit Count: 2099
Cache filled 189 times.
My int is 0x401de8
My int is 0x401df0
My int is 0x401df5
My Fetch_size is 0xc
My int is 0x401dbf
My int is 0x401dbf
My int is 0x401dc5
My int is 0x401dc9
My int is 0x401dd1
My int is 0x401dd6
My int is 0x401dda

Input Size: 2310
Cache size: 10
Hit Count: 2108
Cache filled 190 times.
My int is 0x401dde
My int is 0x401de4
My int is 0x401de8
My int is 0x401df0
My int is 0x401df5
My Fetch_size is 0xc
My int is 0x401dbf
My int is 0x401dbf
My int is 0x401dc5
My int is 0x401dc9
My int is 0x401dd1

Input Size: 2320
Cache size: 10
Hit Count: 2117
Cache filled 191 times.
My int is 0x401dd6
My int is 0x401dda
My int is 0x401dde
My int is 0x401de4
My int is 0x401de8
My int is 0x401df0
My int is 0x401df5
My Fetch_size is 0xc
My int is 0x401dbf
My int is 0x401dbf
My int is 0x401dc5

Input Size: 2330
Cache size: 10
Hit Count: 2126
Cache filled 192 times.
My int is 0x401dc9
My int is 0x401dd1
My int is 0x401dd6
My int is 0x401dda
My int is 0x401dde
My int is 0x401de4
My int is 0x401de8
My int is 0x401df0
My int is 0x401df5
My Fetch_size is 0xc
My int is 0x401dbf

Input Size: 2340
Cache size: 10
Hit Count: 2135
Cache filled 193 times.
My int is 0x401dbf
My int is 0x401dc5
My int is 0x401dc9
My int is 0x401dd1
My int is 0x401dd6
My int is 0x401dda
My int is 0x401dde
My int is 0x401de4
My int is 0x401de8
My int is 0x401df0

Input Size: 2350
Cache size: 10
Hit Count: 2145
Cache filled 193 times.
My int is 0x401df5
My Fetch_size is 0xc
My int is 0x401dbf
My int is 0x401dbf
My int is 0x401dc5
My int is 0x401dc9
My int is 0x401dd1
My int is 0x401dd6
My int is 0x401dda
My int is 0x401dde
My int is 0x401de4

Input Size: 2360
Cache size: 10
Hit Count: 2154
Cache filled 194 times.
My int is 0x401de8
My int is 0x401df0
My int is 0x401df5
My Fetch_size is 0xc
My int is 0x401dbf
My int is 0x401dbf
My int is 0x401dc5
My int is 0x401dc9
My int is 0x401dd1
My int is 0x401dd6
My int is 0x401dda

Input Size: 2370
Cache size: 10
Hit Count: 2163
Cache filled 195 times.
My int is 0x401dde
My int is 0x401de4
My int is 0x401de8
My int is 0x401df0
My int is 0x401df5
My Fetch_size is 0xc
My int is 0x401dbf
My int is 0x401dbf
My int is 0x401dc5
My int is 0x401dc9
My int is 0x401dd1

Input Size: 2380
Cache size: 10
Hit Count: 2172
Cache filled 196 times.
My int is 0x401dd6
My int is 0x401dda
My int is 0x401dde
My int is 0x401de4
My int is 0x401de8
My int is 0x401df0
My int is 0x401df5
My Fetch_size is 0xc
My int is 0x401dbf
My int is 0x401dbf
My int is 0x401dc5

Input Size: 2390
Cache size: 10
Hit Count: 2181
Cache filled 197 times.
My int is 0x401dc9
My int is 0x401dd1
My int is 0x401dd6
My int is 0x401dda
My int is 0x401dde
My int is 0x401de4
My int is 0x401de8
My int is 0x401df0
My int is 0x401df5
My Fetch_size is 0xc
My int is 0x401dbf

Input Size: 2400
Cache size: 10
Hit Count: 2190
Cache filled 198 times.
My int is 0x401dbf
My int is 0x401dc5
My int is 0x401dc9
My int is 0x401dd1
My int is 0x401dd6
My int is 0x401dda
My int is 0x401dde
My int is 0x401de4
My int is 0x401de8
My int is 0x401df0

Input Size: 2410
Cache size: 10
Hit Count: 2200
Cache filled 198 times.
My int is 0x401df5
My Fetch_size is 0xc
My int is 0x401dbf
My int is 0x401dbf
My int is 0x401dc5
My int is 0x401dc9
My int is 0x401dd1
My int is 0x401dd6
My int is 0x401dda
My int is 0x401dde
My int is 0x401de4

Input Size: 2420
Cache size: 10
Hit Count: 2209
Cache filled 199 times.
My int is 0x401de8
My int is 0x401df0
My int is 0x401df5
My Fetch_size is 0xc
My int is 0x401dbf
My int is 0x401dbf
My int is 0x401dc5
My int is 0x401dc9
My int is 0x401dd1
My int is 0x401dd6
My int is 0x401dda

Input Size: 2430
Cache size: 10
Hit Count: 2218
Cache filled 200 times.
My int is 0x401dde
My int is 0x401de4
My int is 0x401de8
My int is 0x401df0
My int is 0x401df5
My Fetch_size is 0xc
My int is 0x401dbf
My int is 0x401dbf
My int is 0x401dc5
My int is 0x401dc9
My int is 0x401dd1

Input Size: 2440
Cache size: 10
Hit Count: 2227
Cache filled 201 times.
My int is 0x401dd6
My int is 0x401dda
My int is 0x401dde
My int is 0x401de4
My int is 0x401de8
My int is 0x401df0
My int is 0x401df5
My Fetch_size is 0xc
My int is 0x401dbf
My int is 0x401dbf
My int is 0x401dc5

Input Size: 2450
Cache size: 10
Hit Count: 2236
Cache filled 202 times.
My int is 0x401dc9
My int is 0x401dd1
My int is 0x401dd6
My int is 0x401dda
My int is 0x401dde
My int is 0x401de4
My int is 0x401de8
My int is 0x401df0
My int is 0x401df5
My Fetch_size is 0xc
My int is 0x401dbf

Input Size: 2460
Cache size: 10
Hit Count: 2245
Cache filled 203 times.
My int is 0x401dbf
My int is 0x401dc5
My int is 0x401dc9
My int is 0x401dd1
My int is 0x401dd6
My int is 0x401dda
My int is 0x401dde
My int is 0x401de4
My int is 0x401de8
My int is 0x401df0

Input Size: 2470
Cache size: 10
Hit Count: 2255
Cache filled 203 times.
My int is 0x401df5
My Fetch_size is 0xc
My int is 0x401dbf
My int is 0x401dbf
My int is 0x401dc5
My int is 0x401dc9
My int is 0x401dd1
My int is 0x401dd6
My int is 0x401dda
My int is 0x401dde
My int is 0x401de4

Input Size: 2480
Cache size: 10
Hit Count: 2264
Cache filled 204 times.
My int is 0x401de8
My int is 0x401df0
My int is 0x401df5
My Fetch_size is 0xc
My int is 0x401dbf
My int is 0x401dbf
My int is 0x401dc5
My int is 0x401dc9
My int is 0x401dd1
My int is 0x401dd6
My int is 0x401dda

Input Size: 2490
Cache size: 10
Hit Count: 2273
Cache filled 205 times.
My int is 0x401dde
My int is 0x401de4
My int is 0x401de8
My int is 0x401df0
My int is 0x401df5
My Fetch_size is 0xc
My int is 0x401dbf
My int is 0x401dbf
My int is 0x401dc5
My int is 0x401dc9
My int is 0x401dd1

Input Size: 2500
Cache size: 10
Hit Count: 2282
Cache filled 206 times.
My int is 0x401dd6
My int is 0x401dda
My int is 0x401dde
My int is 0x401de4
My int is 0x401de8
My int is 0x401df0
My int is 0x401df5
My Fetch_size is 0xc
My int is 0x401dbf
My int is 0x401dbf
My int is 0x401dc5

Input Size: 2510
Cache size: 10
Hit Count: 2291
Cache filled 207 times.
My int is 0x401dc9
My int is 0x401dd1
My int is 0x401dd6
My int is 0x401dda
My int is 0x401dde
My int is 0x401de4
My int is 0x401de8
My int is 0x401df0
My int is 0x401df5
My Fetch_size is 0xc
My int is 0x401dbf

Input Size: 2520
Cache size: 10
Hit Count: 2300
Cache filled 208 times.
My int is 0x401dbf
My int is 0x401dc5
My int is 0x401dc9
My int is 0x401dd1
My int is 0x401dd6
My int is 0x401dda
My int is 0x401dde
My int is 0x401de4
My int is 0x401de8
My int is 0x401df0

Input Size: 2530
Cache size: 10
Hit Count: 2310
Cache filled 208 times.
My int is 0x401df5
My Fetch_size is 0xc
My int is 0x401dbf
My int is 0x401dbf
My int is 0x401dc5
My int is 0x401dc9
My int is 0x401dd1
My int is 0x401dd6
My int is 0x401dda
My int is 0x401dde
My int is 0x401de4

Input Size: 2540
Cache size: 10
Hit Count: 2319
Cache filled 209 times.
My int is 0x401de8
My int is 0x401df0
My int is 0x401df5
My Fetch_size is 0xc
My int is 0x401dbf
My int is 0x401dbf
My int is 0x401dc5
My int is 0x401dc9
My int is 0x401dd1
My int is 0x401dd6
My int is 0x401dda

Input Size: 2550
Cache size: 10
Hit Count: 2328
Cache filled 210 times.
My int is 0x401dde
My int is 0x401de4
My int is 0x401de8
My int is 0x401df0
My int is 0x401df5
My Fetch_size is 0xc
My int is 0x401dbf
My int is 0x401dbf
My int is 0x401dc5
My int is 0x401dc9
My int is 0x401dd1

Input Size: 2560
Cache size: 10
Hit Count: 2337
Cache filled 211 times.
My int is 0x401dd6
My int is 0x401dda
My int is 0x401dde
My int is 0x401de4
My int is 0x401de8
My int is 0x401df0
My int is 0x401df5
My Fetch_size is 0xc
My int is 0x401dbf
My int is 0x401dbf
My int is 0x401dc5

Input Size: 2570
Cache size: 10
Hit Count: 2346
Cache filled 212 times.
My int is 0x401dc9
My int is 0x401dd1
My int is 0x401dd6
My int is 0x401dda
My int is 0x401dde
My int is 0x401de4
My int is 0x401de8
My int is 0x401df0
My int is 0x401df5
My Fetch_size is 0xc
My int is 0x401dbf

Input Size: 2580
Cache size: 10
Hit Count: 2355
Cache filled 213 times.
My int is 0x401dbf
My int is 0x401dc5
My int is 0x401dc9
My int is 0x401dd1
My int is 0x401dd6
My int is 0x401dda
My int is 0x401dde
My int is 0x401de4
My int is 0x401de8
My int is 0x401df0

Input Size: 2590
Cache size: 10
Hit Count: 2365
Cache filled 213 times.
My int is 0x401df5
My Fetch_size is 0xc
My int is 0x401dbf
My int is 0x401dbf
My int is 0x401dc5
My int is 0x401dc9
My int is 0x401dd1
My int is 0x401dd6
My int is 0x401dda
My int is 0x401dde
My int is 0x401de4

Input Size: 2600
Cache size: 10
Hit Count: 2374
Cache filled 214 times.
My int is 0x401de8
My int is 0x401df0
My int is 0x401df5
My Fetch_size is 0xc
My int is 0x401dbf
My int is 0x401dbf
My int is 0x401dc5
My int is 0x401dc9
My int is 0x401dd1
My int is 0x401dd6
My int is 0x401dda

Input Size: 2610
Cache size: 10
Hit Count: 2383
Cache filled 215 times.
My int is 0x401dde
My int is 0x401de4
My int is 0x401de8
My int is 0x401df0
My int is 0x401df5
My Fetch_size is 0xc
My int is 0x401dbf
My int is 0x401dbf
My int is 0x401dc5
My int is 0x401dc9
My int is 0x401dd1

Input Size: 2620
Cache size: 10
Hit Count: 2392
Cache filled 216 times.
My int is 0x401dd6
My int is 0x401dda
My int is 0x401dde
My int is 0x401de4
My int is 0x401de8
My int is 0x401df0
My int is 0x401df5
My Fetch_size is 0xc
My int is 0x401dbf
My int is 0x401dbf
My int is 0x401dc5

Input Size: 2630
Cache size: 10
Hit Count: 2401
Cache filled 217 times.
My int is 0x401dc9
My int is 0x401dd1
My int is 0x401dd6
My int is 0x401dda
My int is 0x401dde
My int is 0x401de4
My int is 0x401de8
My int is 0x401df0
My int is 0x401df5
My Fetch_size is 0xc
My int is 0x401dbf

Input Size: 2640
Cache size: 10
Hit Count: 2410
Cache filled 218 times.
My int is 0x401dbf
My int is 0x401dc5
My int is 0x401dc9
My int is 0x401dd1
My int is 0x401dd6
My int is 0x401dda
My int is 0x401dde
My int is 0x401de4
My int is 0x401de8
My int is 0x401df0

Input Size: 2650
Cache size: 10
Hit Count: 2420
Cache filled 218 times.
My int is 0x401df5
My Fetch_size is 0xc
My int is 0x401dbf
My int is 0x401dbf
My int is 0x401dc5
My int is 0x401dc9
My int is 0x401dd1
My int is 0x401dd6
My int is 0x401dda
My int is 0x401dde
My int is 0x401de4

Input Size: 2660
Cache size: 10
Hit Count: 2429
Cache filled 219 times.
My int is 0x401de8
My int is 0x401df0
My int is 0x401df5
My Fetch_size is 0xc
My int is 0x401dbf
My int is 0x401dbf
My int is 0x401dc5
My int is 0x401dc9
My int is 0x401dd1
My int is 0x401dd6
My int is 0x401dda

Input Size: 2670
Cache size: 10
Hit Count: 2438
Cache filled 220 times.
My int is 0x401dde
My int is 0x401de4
My int is 0x401de8
My int is 0x401df0
My int is 0x401df5
My Fetch_size is 0xc
My int is 0x401dbf
My int is 0x401dbf
My int is 0x401dc5
My int is 0x401dc9
My int is 0x401dd1

Input Size: 2680
Cache size: 10
Hit Count: 2447
Cache filled 221 times.
My int is 0x401dd6
My int is 0x401dda
My int is 0x401dde
My int is 0x401de4
My int is 0x401de8
My int is 0x401df0
My int is 0x401df5
My Fetch_size is 0xc
My int is 0x401dbf
My int is 0x401dbf
My int is 0x401dc5

Input Size: 2690
Cache size: 10
Hit Count: 2456
Cache filled 222 times.
My int is 0x401dc9
My int is 0x401dd1
My int is 0x401dd6
My int is 0x401dda
My int is 0x401dde
My int is 0x401de4
My int is 0x401de8
My int is 0x401df0
My int is 0x401df5
My Fetch_size is 0xc
My int is 0x401dbf

Input Size: 2700
Cache size: 10
Hit Count: 2465
Cache filled 223 times.
My int is 0x401dbf
My int is 0x401dc5
My int is 0x401dc9
My int is 0x401dd1
My int is 0x401dd6
My int is 0x401dda
My int is 0x401dde
My int is 0x401de4
My int is 0x401de8
My int is 0x401df0

Input Size: 2710
Cache size: 10
Hit Count: 2475
Cache filled 223 times.
My int is 0x401df5
My Fetch_size is 0xc
My int is 0x401dbf
My int is 0x401dbf
My int is 0x401dc5
My int is 0x401dc9
My int is 0x401dd1
My int is 0x401dd6
My int is 0x401dda
My int is 0x401dde
My int is 0x401de4

Input Size: 2720
Cache size: 10
Hit Count: 2484
Cache filled 224 times.
My int is 0x401de8
My int is 0x401df0
My int is 0x401df5
My Fetch_size is 0xc
My int is 0x401dbf
My int is 0x401dbf
My int is 0x401dc5
My int is 0x401dc9
My int is 0x401dd1
My int is 0x401dd6
My int is 0x401dda

Input Size: 2730
Cache size: 10
Hit Count: 2493
Cache filled 225 times.
My int is 0x401dde
My int is 0x401de4
My int is 0x401de8
My int is 0x401df0
My int is 0x401df5
My Fetch_size is 0xc
My int is 0x401dbf
My int is 0x401dbf
My int is 0x401dc5
My int is 0x401dc9
My int is 0x401dd1

Input Size: 2740
Cache size: 10
Hit Count: 2502
Cache filled 226 times.
My int is 0x401dd6
My int is 0x401dda
My int is 0x401dde
My int is 0x401de4
My int is 0x401de8
My int is 0x401df0
My int is 0x401df5
My Fetch_size is 0xc
My int is 0x401dbf
My int is 0x401dbf
My int is 0x401dc5

Input Size: 2750
Cache size: 10
Hit Count: 2511
Cache filled 227 times.
My int is 0x401dc9
My int is 0x401dd1
My int is 0x401dd6
My int is 0x401dda
My int is 0x401dde
My int is 0x401de4
My int is 0x401de8
My int is 0x401df0
My int is 0x401df5
My Fetch_size is 0xc
My int is 0x401dbf

Input Size: 2760
Cache size: 10
Hit Count: 2520
Cache filled 228 times.
My int is 0x401dbf
My int is 0x401dc5
My int is 0x401dc9
My int is 0x401dd1
My int is 0x401dd6
My int is 0x401dda
My int is 0x401dde
My int is 0x401de4
My int is 0x401de8
My int is 0x401df0

Input Size: 2770
Cache size: 10
Hit Count: 2530
Cache filled 228 times.
My int is 0x401df5
My Fetch_size is 0xc
My int is 0x401dbf
My int is 0x401dbf
My int is 0x401dc5
My int is 0x401dc9
My int is 0x401dd1
My int is 0x401dd6
My int is 0x401dda
My int is 0x401dde
My int is 0x401de4

Input Size: 2780
Cache size: 10
Hit Count: 2539
Cache filled 229 times.
My int is 0x401de8
My int is 0x401df0
My int is 0x401df5
My Fetch_size is 0xc
My int is 0x401dbf
My int is 0x401dbf
My int is 0x401dc5
My int is 0x401dc9
My int is 0x401dd1
My int is 0x401dd6
My int is 0x401dda

Input Size: 2790
Cache size: 10
Hit Count: 2548
Cache filled 230 times.
My int is 0x401dde
My int is 0x401de4
My int is 0x401de8
My int is 0x401df0
My int is 0x401df5
My Fetch_size is 0xc
My int is 0x401dbf
My int is 0x401dbf
My int is 0x401dc5
My int is 0x401dc9
My int is 0x401dd1

Input Size: 2800
Cache size: 10
Hit Count: 2557
Cache filled 231 times.
My int is 0x401dd6
My int is 0x401dda
My int is 0x401dde
My int is 0x401de4
My int is 0x401de8
My int is 0x401df0
My int is 0x401df5
My Fetch_size is 0xc
My int is 0x401dbf
My int is 0x401dbf
My int is 0x401dc5

Input Size: 2810
Cache size: 10
Hit Count: 2566
Cache filled 232 times.
My int is 0x401dc9
My int is 0x401dd1
My int is 0x401dd6
My int is 0x401dda
My int is 0x401dde
My int is 0x401de4
My int is 0x401de8
My int is 0x401df0
My int is 0x401df5
My Fetch_size is 0xc
My int is 0x401dbf

Input Size: 2820
Cache size: 10
Hit Count: 2575
Cache filled 233 times.
My int is 0x401dbf
My int is 0x401dc5
My int is 0x401dc9
My int is 0x401dd1
My int is 0x401dd6
My int is 0x401dda
My int is 0x401dde
My int is 0x401de4
My int is 0x401de8
My int is 0x401df0

Input Size: 2830
Cache size: 10
Hit Count: 2585
Cache filled 233 times.
My int is 0x401df5
My Fetch_size is 0xc
My int is 0x401dbf
My int is 0x401dbf
My int is 0x401dc5
My int is 0x401dc9
My int is 0x401dd1
My int is 0x401dd6
My int is 0x401dda
My int is 0x401dde
My int is 0x401de4

Input Size: 2840
Cache size: 10
Hit Count: 2594
Cache filled 234 times.
My int is 0x401de8
My int is 0x401df0
My int is 0x401df5
My Fetch_size is 0xc
My int is 0x401dbf
My int is 0x401dbf
My int is 0x401dc5
My int is 0x401dc9
My int is 0x401dd1
My int is 0x401dd6
My int is 0x401dda

Input Size: 2850
Cache size: 10
Hit Count: 2603
Cache filled 235 times.
[...]
My int is 0x401dd6
My int is 0x401dda
My int is 0x401dde
My int is 0x401de4
My int is 0x401de8
My int is 0x401df0
My int is 0x401df5
My Fetch_size is 0xc
My int is 0x401dbf

Input Size: 109680
Cache size: 10
Hit Count: 100530
Cache filled 9138 times.
My int is 0x401dbf
My int is 0x401dc5
My int is 0x401dc9
My int is 0x401dd1
My int is 0x401dd6
My int is 0x401dda
My int is 0x401dde
My int is 0x401de4
My int is 0x401de8
My int is 0x401df0

Input Size: 109690
Cache size: 10
Hit Count: 100540
Cache filled 9138 times.
My int is 0x401df5
My Fetch_size is 0xc
My int is 0x401dbf
My int is 0x401dbf
My int is 0x401dc5
My int is 0x401dc9
My int is 0x401dd1
My int is 0x401dd6
My int is 0x401dda
My int is 0x401dde
My int is 0x401de4

Input Size: 109700
Cache size: 10
Hit Count: 100549
Cache filled 9139 times.
My int is 0x401de8
My int is 0x401df0
My int is 0x401df5
My Fetch_size is 0xc
My int is 0x401dbf
My int is 0x401dbf
My int is 0x401dc5
My int is 0x401dc9
My int is 0x401dd1
My int is 0x401dd6
My int is 0x401dda

Input Size: 109710
Cache size: 10
Hit Count: 100558
Cache filled 9140 times.
My int is 0x401dde
My int is 0x401de4
My int is 0x401de8
My int is 0x401df0
My int is 0x401df5
My Fetch_size is 0xc
My int is 0x401dbf
My int is 0x401dbf
My int is 0x401dc5
My int is 0x401dc9
My int is 0x401dd1

Input Size: 109720
Cache size: 10
Hit Count: 100567
Cache filled 9141 times.
My int is 0x401dd6
My int is 0x401dda
My int is 0x401dde
My int is 0x401de4
My int is 0x401de8
My int is 0x401df0
My int is 0x401df5
My Fetch_size is 0xc
My int is 0x401dbf
My int is 0x401dbf
My int is 0x401dc5

Input Size: 109730
Cache size: 10
Hit Count: 100576
Cache filled 9142 times.
My int is 0x401dc9
My int is 0x401dd1
My int is 0x401dd6
My int is 0x401dda
My int is 0x401dde
My int is 0x401de4
My int is 0x401de8
My int is 0x401df0
My int is 0x401df5
My Fetch_size is 0xc
My int is 0x401dbf

Input Size: 109740
Cache size: 10
Hit Count: 100585
Cache filled 9143 times.
My int is 0x401dbf
My int is 0x401dc5
My int is 0x401dc9
My int is 0x401dd1
My int is 0x401dd6
My int is 0x401dda
My int is 0x401dde
My int is 0x401de4
My int is 0x401de8
My int is 0x401df0

Input Size: 109750
Cache size: 10
Hit Count: 100595
Cache filled 9143 times.
My int is 0x401df5
My Fetch_size is 0xc
My int is 0x401dbf
My int is 0x401dbf
My int is 0x401dc5
My int is 0x401dc9
My int is 0x401dd1
My int is 0x401dd6
My int is 0x401dda
My int is 0x401dde
My int is 0x401de4

Input Size: 109760
Cache size: 10
Hit Count: 100604
Cache filled 9144 times.
My int is 0x401de8
My int is 0x401df0
My int is 0x401df5
My Fetch_size is 0xc
My int is 0x401dbf
My int is 0x401dbf
My int is 0x401dc5
My int is 0x401dc9
My int is 0x401dd1
My int is 0x401dd6
My int is 0x401dda

Input Size: 109770
Cache size: 10
Hit Count: 100613
Cache filled 9145 times.
My int is 0x401dde
My int is 0x401de4
My int is 0x401de8
My int is 0x401df0
My int is 0x401df5
My Fetch_size is 0xc
My int is 0x401dbf
My int is 0x401dbf
My int is 0x401dc5
My int is 0x401dc9
My int is 0x401dd1

Input Size: 109780
Cache size: 10
Hit Count: 100622
Cache filled 9146 times.
My int is 0x401dd6
My int is 0x401dda
My int is 0x401dde
My int is 0x401de4
My int is 0x401de8
My int is 0x401df0
My int is 0x401df5
My Fetch_size is 0xc
My int is 0x401dbf
My int is 0x401dbf
My int is 0x401dc5

Input Size: 109790
Cache size: 10
Hit Count: 100631
Cache filled 9147 times.
My int is 0x401dc9
My int is 0x401dd1
My int is 0x401dd6
My int is 0x401dda
My int is 0x401dde
My int is 0x401de4
My int is 0x401de8
My int is 0x401df0
My int is 0x401df5
My Fetch_size is 0xc
My int is 0x401dbf

Input Size: 109800
Cache size: 10
Hit Count: 100640
Cache filled 9148 times.
My int is 0x401dbf
My int is 0x401dc5
My int is 0x401dc9
My int is 0x401dd1
My int is 0x401dd6
My int is 0x401dda
My int is 0x401dde
My int is 0x401de4
My int is 0x401de8
My int is 0x401df0

Input Size: 109810
Cache size: 10
Hit Count: 100650
Cache filled 9148 times.
My int is 0x401df5
My Fetch_size is 0xc
My int is 0x401dbf
My int is 0x401dbf
My int is 0x401dc5
My int is 0x401dc9
My int is 0x401dd1
My int is 0x401dd6
My int is 0x401dda
My int is 0x401dde
My int is 0x401de4

Input Size: 109820
Cache size: 10
Hit Count: 100659
Cache filled 9149 times.
My int is 0x401de8
My int is 0x401df0
My int is 0x401df5
My Fetch_size is 0xc
My int is 0x401dbf
My int is 0x401dbf
My int is 0x401dc5
My int is 0x401dc9
My int is 0x401dd1
My int is 0x401dd6
My int is 0x401dda

Input Size: 109830
Cache size: 10
Hit Count: 100668
Cache filled 9150 times.
My int is 0x401dde
My int is 0x401de4
My int is 0x401de8
My int is 0x401df0
My int is 0x401df5
My Fetch_size is 0xc
My int is 0x401dbf
My int is 0x401dbf
My int is 0x401dc5
My int is 0x401dc9
My int is 0x401dd1

Input Size: 109840
Cache size: 10
Hit Count: 100677
Cache filled 9151 times.
My int is 0x401dd6
My int is 0x401dda
My int is 0x401dde
My int is 0x401de4
My int is 0x401de8
My int is 0x401df0
My int is 0x401df5
My Fetch_size is 0xc
My int is 0x401dbf
My int is 0x401dbf
My int is 0x401dc5

Input Size: 109850
Cache size: 10
Hit Count: 100686
Cache filled 9152 times.
My int is 0x401dc9
My int is 0x401dd1
My int is 0x401dd6
My int is 0x401dda
My int is 0x401dde
My int is 0x401de4
My int is 0x401de8
My int is 0x401df0
My int is 0x401df5
My Fetch_size is 0xc
My int is 0x401dbf

Input Size: 109860
Cache size: 10
Hit Count: 100695
Cache filled 9153 times.
My int is 0x401dbf
My int is 0x401dc5
My int is 0x401dc9
My int is 0x401dd1
My int is 0x401dd6
My int is 0x401dda
My int is 0x401dde
My int is 0x401de4
My int is 0x401de8
My int is 0x401df0

Input Size: 109870
Cache size: 10
Hit Count: 100705
Cache filled 9153 times.
My int is 0x401df5
My Fetch_size is 0xc
My int is 0x401dbf
My int is 0x401dbf
My int is 0x401dc5
My int is 0x401dc9
My int is 0x401dd1
My int is 0x401dd6
My int is 0x401dda
My int is 0x401dde
My int is 0x401de4

Input Size: 109880
Cache size: 10
Hit Count: 100714
Cache filled 9154 times.
My int is 0x401de8
My int is 0x401df0
My int is 0x401df5
My Fetch_size is 0xc
My int is 0x401dbf
My int is 0x401dbf
My int is 0x401dc5
My int is 0x401dc9
My int is 0x401dd1
My int is 0x401dd6
My int is 0x401dda

Input Size: 109890
Cache size: 10
Hit Count: 100723
Cache filled 9155 times.
My int is 0x401dde
My int is 0x401de4
My int is 0x401de8
My int is 0x401df0
My int is 0x401df5
My Fetch_size is 0xc
My int is 0x401dbf
My int is 0x401dbf
My int is 0x401dc5
My int is 0x401dc9
My int is 0x401dd1

Input Size: 109900
Cache size: 10
Hit Count: 100732
Cache filled 9156 times.
My int is 0x401dd6
My int is 0x401dda
My int is 0x401dde
My int is 0x401de4
My int is 0x401de8
My int is 0x401df0
My int is 0x401df5
My Fetch_size is 0xc
My int is 0x401dbf
My int is 0x401dbf
My int is 0x401dc5

Input Size: 109910
Cache size: 10
Hit Count: 100741
Cache filled 9157 times.
My int is 0x401dc9
My int is 0x401dd1
My int is 0x401dd6
My int is 0x401dda
My int is 0x401dde
My int is 0x401de4
My int is 0x401de8
My int is 0x401df0
My int is 0x401df5
My Fetch_size is 0xc
My int is 0x401dbf

Input Size: 109920
Cache size: 10
Hit Count: 100750
Cache filled 9158 times.
My int is 0x401dbf
My int is 0x401dc5
My int is 0x401dc9
My int is 0x401dd1
My int is 0x401dd6
My int is 0x401dda
My int is 0x401dde
My int is 0x401de4
My int is 0x401de8
My int is 0x401df0

Input Size: 109930
Cache size: 10
Hit Count: 100760
Cache filled 9158 times.
My int is 0x401df5
My Fetch_size is 0xc
My int is 0x401dbf
My int is 0x401dbf
My int is 0x401dc5
My int is 0x401dc9
My int is 0x401dd1
My int is 0x401dd6
My int is 0x401dda
My int is 0x401dde
My int is 0x401de4

Input Size: 109940
Cache size: 10
Hit Count: 100769
Cache filled 9159 times.
My int is 0x401de8
My int is 0x401df0
My int is 0x401df5
My Fetch_size is 0xc
My int is 0x401dbf
My int is 0x401dbf
My int is 0x401dc5
My int is 0x401dc9
My int is 0x401dd1
My int is 0x401dd6
My int is 0x401dda

Input Size: 109950
Cache size: 10
Hit Count: 100778
Cache filled 9160 times.
My int is 0x401dde
My int is 0x401de4
My int is 0x401de8
My int is 0x401df0
My int is 0x401df5
My Fetch_size is 0xc
My int is 0x401dbf
My int is 0x401dbf
My int is 0x401dc5
My int is 0x401dc9
My int is 0x401dd1

Input Size: 109960
Cache size: 10
Hit Count: 100787
Cache filled 9161 times.
My int is 0x401dd6
My int is 0x401dda
My int is 0x401dde
My int is 0x401de4
My int is 0x401de8
My int is 0x401df0
My int is 0x401df5
My Fetch_size is 0xc
My int is 0x401dbf
My int is 0x401dbf
My int is 0x401dc5

Input Size: 109970
Cache size: 10
Hit Count: 100796
Cache filled 9162 times.
My int is 0x401dc9
My int is 0x401dd1
My int is 0x401dd6
My int is 0x401dda
My int is 0x401dde
My int is 0x401de4
My int is 0x401de8
My int is 0x401df0
My int is 0x401df5
My Fetch_size is 0xc
My int is 0x401dbf

Input Size: 109980
Cache size: 10
Hit Count: 100805
Cache filled 9163 times.
My int is 0x401dbf
My int is 0x401dc5
My int is 0x401dc9
My int is 0x401dd1
My int is 0x401dd6
My int is 0x401dda
My int is 0x401dde
My int is 0x401de4
My int is 0x401de8
My int is 0x401df0

Input Size: 109990
Cache size: 10
Hit Count: 100815
Cache filled 9163 times.
My int is 0x401df5
My Fetch_size is 0xc
My int is 0x401dbf
My int is 0x401dbf
My int is 0x401dc5
My int is 0x401dc9
My int is 0x401dd1
My int is 0x401dd6
My int is 0x401dda
My int is 0x401dde
My int is 0x401de4

Input Size: 110000
Cache size: 10
Hit Count: 100824
Cache filled 9164 times.
My int is 0x401de8
My int is 0x401df0
My int is 0x401df5
My Fetch_size is 0xc
My int is 0x401dbf
My int is 0x401dbf
My int is 0x401dc5
My int is 0x401dc9
My int is 0x401dd1
My int is 0x401dd6
My int is 0x401dda

Input Size: 110010
Cache size: 10
Hit Count: 100833
Cache filled 9165 times.
My int is 0x401dde
My int is 0x401de4
My int is 0x401de8
My int is 0x401df0
My int is 0x401df5
My Fetch_size is 0xc
My int is 0x401dbf
My int is 0x401dbf
My int is 0x401dc5
My int is 0x401dc9
My int is 0x401dd1

Input Size: 110020
Cache size: 10
Hit Count: 100842
Cache filled 9166 times.
My int is 0x401dd6
My int is 0x401dda
My int is 0x401dde
My int is 0x401de4
My int is 0x401de8
My int is 0x401df0
My int is 0x401df5
My Fetch_size is 0xc
My int is 0x401dbf
My int is 0x401dbf
My int is 0x401dc5

Input Size: 110030
Cache size: 10
Hit Count: 100851
Cache filled 9167 times.
My int is 0x401dc9
My int is 0x401dd1
My int is 0x401dd6
My int is 0x401dda
My int is 0x401dde
My int is 0x401de4
My int is 0x401de8
My int is 0x401df0
My int is 0x401df5
My Fetch_size is 0xc
My int is 0x401dbf

Input Size: 110040
Cache size: 10
Hit Count: 100860
Cache filled 9168 times.
My int is 0x401dbf
My int is 0x401dc5
My int is 0x401dc9
My int is 0x401dd1
My int is 0x401dd6
My int is 0x401dda
My int is 0x401dde
My int is 0x401de4
My int is 0x401de8
My int is 0x401df0

Input Size: 110050
Cache size: 10
Hit Count: 100870
Cache filled 9168 times.
My int is 0x401df5
My Fetch_size is 0xc
My int is 0x401dbf
My int is 0x401dbf
My int is 0x401dc5
My int is 0x401dc9
My int is 0x401dd1
My int is 0x401dd6
My int is 0x401dda
My int is 0x401dde
My int is 0x401de4

Input Size: 110060
Cache size: 10
Hit Count: 100879
Cache filled 9169 times.
My int is 0x401de8
My int is 0x401df0
My int is 0x401df5
My Fetch_size is 0xc
My int is 0x401dbf
My int is 0x401dbf
My int is 0x401dc5
My int is 0x401dc9
My int is 0x401dd1
My int is 0x401dd6
My int is 0x401dda

Input Size: 110070
Cache size: 10
Hit Count: 100888
Cache filled 9170 times.
My int is 0x401dde
My int is 0x401de4
My int is 0x401de8
My int is 0x401df0
My int is 0x401df5
My Fetch_size is 0xc
My int is 0x401dbf
My int is 0x401dbf
My int is 0x401dc5
My int is 0x401dc9
My int is 0x401dd1

Input Size: 110080
Cache size: 10
Hit Count: 100897
Cache filled 9171 times.
My int is 0x401dd6
My int is 0x401dda
My int is 0x401dde
My int is 0x401de4
My int is 0x401de8
My int is 0x401df0
My int is 0x401df5
My Fetch_size is 0xc
My int is 0x401dbf
My int is 0x401dbf
My int is 0x401dc5

Input Size: 110090
Cache size: 10
Hit Count: 100906
Cache filled 9172 times.
My int is 0x401dc9
My int is 0x401dd1
My int is 0x401dd6
My int is 0x401dda
My int is 0x401dde
My int is 0x401de4
My int is 0x401de8
My int is 0x401df0
My int is 0x401df5
My Fetch_size is 0xc
My int is 0x401dbf

Input Size: 110100
Cache size: 10
Hit Count: 100915
Cache filled 9173 times.
My int is 0x401dbf
My int is 0x401dc5
My int is 0x401dc9
My int is 0x401dd1
My int is 0x401dd6
My int is 0x401dda
My int is 0x401dde
My int is 0x401de4
My int is 0x401de8
My int is 0x401df0

Input Size: 110110
Cache size: 10
Hit Count: 100925
Cache filled 9173 times.
My int is 0x401df5
My Fetch_size is 0xc
My int is 0x401dbf
My int is 0x401dbf
My int is 0x401dc5
My int is 0x401dc9
My int is 0x401dd1
My int is 0x401dd6
My int is 0x401dda
My int is 0x401dde
My int is 0x401de4

Input Size: 110120
Cache size: 10
Hit Count: 100934
Cache filled 9174 times.
My int is 0x401de8
My int is 0x401df0
My int is 0x401df5
My Fetch_size is 0xc
My int is 0x401dbf
My int is 0x401dbf
My int is 0x401dc5
My int is 0x401dc9
My int is 0x401dd1
My int is 0x401dd6
My int is 0x401dda

Input Size: 110130
Cache size: 10
Hit Count: 100943
Cache filled 9175 times.
My int is 0x401dde
My int is 0x401de4
My int is 0x401de8
My int is 0x401df0
My int is 0x401df5
My Fetch_size is 0xc
My int is 0x401dbf
My int is 0x401dbf
My int is 0x401dc5
My int is 0x401dc9
My int is 0x401dd1

Input Size: 110140
Cache size: 10
Hit Count: 100952
Cache filled 9176 times.
My int is 0x401dd6
My int is 0x401dda
My int is 0x401dde
My int is 0x401de4
My int is 0x401de8
My int is 0x401df0
My int is 0x401df5
My Fetch_size is 0xc
My int is 0x401dbf
My int is 0x401dbf
My int is 0x401dc5

Input Size: 110150
Cache size: 10
Hit Count: 100961
Cache filled 9177 times.
My int is 0x401dc9
My int is 0x401dd1
My int is 0x401dd6
My int is 0x401dda
My int is 0x401dde
My int is 0x401de4
My int is 0x401de8
My int is 0x401df0
My int is 0x401df5
My Fetch_size is 0xc
My int is 0x401dbf

Input Size: 110160
Cache size: 10
Hit Count: 100970
Cache filled 9178 times.
My int is 0x401dbf
My int is 0x401dc5
My int is 0x401dc9
My int is 0x401dd1
My int is 0x401dd6
My int is 0x401dda
My int is 0x401dde
My int is 0x401de4
My int is 0x401de8
My int is 0x401df0

Input Size: 110170
Cache size: 10
Hit Count: 100980
Cache filled 9178 times.
My int is 0x401df5
My Fetch_size is 0xc
My int is 0x401dbf
My int is 0x401dbf
My int is 0x401dc5
My int is 0x401dc9
My int is 0x401dd1
My int is 0x401dd6
My int is 0x401dda
My int is 0x401dde
My int is 0x401de4

Input Size: 110180
Cache size: 10
Hit Count: 100989
Cache filled 9179 times.
My int is 0x401de8
My int is 0x401df0
My int is 0x401df5
My Fetch_size is 0xc
My int is 0x401dbf
My int is 0x401dbf
My int is 0x401dc5
My int is 0x401dc9
My int is 0x401dd1
My int is 0x401dd6
My int is 0x401dda

Input Size: 110190
Cache size: 10
Hit Count: 100998
Cache filled 9180 times.
My int is 0x401dde
My int is 0x401de4
My int is 0x401de8
My int is 0x401df0
My int is 0x401df5
My Fetch_size is 0xc
My int is 0x401dbf
My int is 0x401dbf
My int is 0x401dc5
My int is 0x401dc9
My int is 0x401dd1

Input Size: 110200
Cache size: 10
Hit Count: 101007
Cache filled 9181 times.
My int is 0x401dd6
My int is 0x401dda
My int is 0x401dde
My int is 0x401de4
My int is 0x401de8
My int is 0x401df0
My int is 0x401df5
My Fetch_size is 0xc
My int is 0x401dbf
My int is 0x401dbf
My int is 0x401dc5

Input Size: 110210
Cache size: 10
Hit Count: 101016
Cache filled 9182 times.
My int is 0x401dc9
My int is 0x401dd1
My int is 0x401dd6
My int is 0x401dda
My int is 0x401dde
My int is 0x401de4
My int is 0x401de8
My int is 0x401df0
My int is 0x401df5
My Fetch_size is 0xc
My int is 0x401dbf

Input Size: 110220
Cache size: 10
Hit Count: 101025
Cache filled 9183 times.
My int is 0x401dbf
My int is 0x401dc5
My int is 0x401dc9
My int is 0x401dd1
My int is 0x401dd6
My int is 0x401dda
My int is 0x401dde
My int is 0x401de4
My int is 0x401de8
My int is 0x401df0

Input Size: 110230
Cache size: 10
Hit Count: 101035
Cache filled 9183 times.
My int is 0x401df5
My Fetch_size is 0xc
My int is 0x401dbf
My int is 0x401dbf
My int is 0x401dc5
My int is 0x401dc9
My int is 0x401dd1
My int is 0x401dd6
My int is 0x401dda
My int is 0x401dde
My int is 0x401de4

Input Size: 110240
Cache size: 10
Hit Count: 101044
Cache filled 9184 times.
My int is 0x401de8
My int is 0x401df0
My int is 0x401df5
My Fetch_size is 0xc
My int is 0x401dbf
My int is 0x401dbf
My int is 0x401dc5
My int is 0x401dc9
My int is 0x401dd1
My int is 0x401dd6
My int is 0x401dda

Input Size: 110250
Cache size: 10
Hit Count: 101053
Cache filled 9185 times.
My int is 0x401dde
My int is 0x401de4
My int is 0x401de8
My int is 0x401df0
My int is 0x401df5
My Fetch_size is 0xc
My int is 0x401dbf
My int is 0x401dbf
My int is 0x401dc5
My int is 0x401dc9
My int is 0x401dd1

Input Size: 110260
Cache size: 10
Hit Count: 101062
Cache filled 9186 times.
My int is 0x401dd6
My int is 0x401dda
My int is 0x401dde
My int is 0x401de4
My int is 0x401de8
My int is 0x401df0
My int is 0x401df5
My Fetch_size is 0xc
My int is 0x401dbf
My int is 0x401dbf
My int is 0x401dc5

Input Size: 110270
Cache size: 10
Hit Count: 101071
Cache filled 9187 times.
My int is 0x401dc9
My int is 0x401dd1
My int is 0x401dd6
My int is 0x401dda
My int is 0x401dde
My int is 0x401de4
My int is 0x401de8
My int is 0x401df0
My int is 0x401df5
My Fetch_size is 0xc
My int is 0x401dbf

Input Size: 110280
Cache size: 10
Hit Count: 101080
Cache filled 9188 times.
My int is 0x401dbf
My int is 0x401dc5
My int is 0x401dc9
My int is 0x401dd1
My int is 0x401dd6
My int is 0x401dda
My int is 0x401dde
My int is 0x401de4
My int is 0x401de8
My int is 0x401df0

Input Size: 110290
Cache size: 10
Hit Count: 101090
Cache filled 9188 times.
My int is 0x401df5
My Fetch_size is 0xc
My int is 0x401dbf
My int is 0x401dbf
My int is 0x401dc5
My int is 0x401dc9
My int is 0x401dd1
My int is 0x401dd6
My int is 0x401dda
My int is 0x401dde
My int is 0x401de4

Input Size: 110300
Cache size: 10
Hit Count: 101099
Cache filled 9189 times.
My int is 0x401de8
My int is 0x401df0
My int is 0x401df5
My Fetch_size is 0xc
My int is 0x401dbf
My int is 0x401dbf
My int is 0x401dc5
My int is 0x401dc9
My int is 0x401dd1
My int is 0x401dd6
My int is 0x401dda

Input Size: 110310
Cache size: 10
Hit Count: 101108
Cache filled 9190 times.
My int is 0x401dde
My int is 0x401de4
My int is 0x401de8
My int is 0x401df0
My int is 0x401df5
My Fetch_size is 0xc
My int is 0x401dbf
My int is 0x401dbf
My int is 0x401dc5
My int is 0x401dc9
My int is 0x401dd1

Input Size: 110320
Cache size: 10
Hit Count: 101117
Cache filled 9191 times.
My int is 0x401dd6
My int is 0x401dda
My int is 0x401dde
My int is 0x401de4
My int is 0x401de8
My int is 0x401df0
My int is 0x401df5
My Fetch_size is 0xc
My int is 0x401dbf
My int is 0x401dbf
My int is 0x401dc5

Input Size: 110330
Cache size: 10
Hit Count: 101126
Cache filled 9192 times.
My int is 0x401dc9
My int is 0x401dd1
My int is 0x401dd6
My int is 0x401dda
My int is 0x401dde
My int is 0x401de4
My int is 0x401de8
My int is 0x401df0
My int is 0x401df5
My Fetch_size is 0xc
My int is 0x401dbf

Input Size: 110340
Cache size: 10
Hit Count: 101135
Cache filled 9193 times.
My int is 0x401dbf
My int is 0x401dc5
My int is 0x401dc9
My int is 0x401dd1
My int is 0x401dd6
My int is 0x401dda
My int is 0x401dde
My int is 0x401de4
My int is 0x401de8
My int is 0x401df0

Input Size: 110350
Cache size: 10
Hit Count: 101145
Cache filled 9193 times.
My int is 0x401df5
My Fetch_size is 0xc
My int is 0x401dbf
My int is 0x401dbf
My int is 0x401dc5
My int is 0x401dc9
My int is 0x401dd1
My int is 0x401dd6
My int is 0x401dda
My int is 0x401dde
My int is 0x401de4

Input Size: 110360
Cache size: 10
Hit Count: 101154
Cache filled 9194 times.
My int is 0x401de8
My int is 0x401df0
My int is 0x401df5
My Fetch_size is 0xc
My int is 0x401dbf
My int is 0x401dbf
My int is 0x401dc5
My int is 0x401dc9
My int is 0x401dd1
My int is 0x401dd6
My int is 0x401dda

Input Size: 110370
Cache size: 10
Hit Count: 101163
Cache filled 9195 times.
My int is 0x401dde
My int is 0x401de4
Caught signal: 2
